<?xml version="1.0" encoding="UTF-8"?>

<!-- generated on 2025-07-22 12:11:32 by Eclipse SUMO netconvert Version 1.23.1
<netconvertConfiguration xmlns:xsi="http://www.w3.org/2001/XMLSchema-instance" xsi:noNamespaceSchemaLocation="http://sumo.dlr.de/xsd/netconvertConfiguration.xsd">

    <input>
        <node-files value="runs/25-07-22-12-11-32/network.nod.xml"/>
        <edge-files value="runs/25-07-22-12-11-32/network.edg.xml"/>
    </input>

    <output>
        <output-file value="runs/25-07-22-12-11-32/network.net.xml"/>
    </output>

</netconvertConfiguration>
-->

<net version="1.20" junctionCornerDetail="5" limitTurnSpeed="5.50" xmlns:xsi="http://www.w3.org/2001/XMLSchema-instance" xsi:noNamespaceSchemaLocation="http://sumo.dlr.de/xsd/net_file.xsd">

    <location netOffset="0.00,0.00" convBoundary="0.00,0.00,300.00,200.00" origBoundary="0.00,0.00,300.00,200.00" projParameter="!"/>

    <edge id=":cs-end_0" function="internal">
        <lane id=":cs-end_0_0" index="0" speed="5.74" length="9.18" shape="51.60,81.00 51.23,83.70 50.13,85.20 48.29,85.52 45.71,84.64"/>
    </edge>
    <edge id=":cs-start_0" function="internal">
        <lane id=":cs-start_0_0" index="0" speed="7.47" length="16.57" shape="45.71,35.36 51.09,33.28 54.93,33.20 57.23,35.10 58.00,39.00"/>
        <lane id=":cs-start_0_1" index="1" speed="6.65" length="12.85" shape="45.71,35.36 49.69,33.88 52.53,34.00 54.23,35.70 54.80,39.00"/>
        <lane id=":cs-start_0_2" index="2" speed="5.74" length="9.18" shape="45.71,35.36 48.29,34.48 50.13,34.80 51.23,36.30 51.60,39.00"/>
    </edge>
    <edge id=":road-from-cs_0" function="internal">
        <lane id=":road-from-cs_0_0" index="0" speed="13.89" length="0.10" shape="1.60,130.00 1.60,130.00"/>
    </edge>
    <edge id=":road-to-cs_0" function="internal">
        <lane id=":road-to-cs_0_0" index="0" speed="5.74" length="9.18" shape="7.49,65.54 4.91,64.66 3.07,64.97 1.97,66.48 1.60,69.18"/>
    </edge>
    <edge id=":road-to-cs_1" function="internal">
        <lane id=":road-to-cs_1_0" index="0" speed="7.07" length="16.17" shape="7.49,65.54 3.34,62.77 1.96,60.00 3.34,57.23 7.49,54.46"/>
    </edge>
    <edge id=":road-to-cs_2" function="internal">
        <lane id=":road-to-cs_2_0" index="0" speed="5.74" length="9.18" shape="1.60,50.82 1.97,53.52 3.07,55.03 4.91,55.34 7.49,54.46"/>
    </edge>
    <edge id=":road-to-cs_3" function="internal">
        <lane id=":road-to-cs_3_0" index="0" speed="13.89" length="18.36" shape="1.60,50.82 1.60,69.18"/>
    </edge>

    <edge id="e1" from="start" to="road-to-cs" priority="1">
        <lane id="e1_0" index="0" speed="13.89" length="50.82" shape="1.60,0.00 1.60,50.82"/>
    </edge>
    <edge id="e2" from="road-to-cs" to="road-from-cs" priority="1">
        <lane id="e2_0" index="0" speed="13.89" length="60.82" shape="1.60,69.18 1.60,130.00"/>
    </edge>
    <edge id="e3" from="road-from-cs" to="end" priority="1">
        <lane id="e3_0" index="0" speed="13.89" length="70.00" shape="1.60,130.00 1.60,200.00"/>
    </edge>
    <edge id="e4" from="road-to-cs" to="cs-start" priority="1">
        <lane id="e4_0" index="0" speed="13.89" length="42.72" shape="7.49,54.46 45.71,35.36"/>
    </edge>
    <edge id="e5" from="cs-start" to="cs-end" priority="1">
        <lane id="e5_0" index="0" speed="13.89" length="42.00" shape="58.00,39.00 58.00,81.00"/>
        <lane id="e5_1" index="1" speed="13.89" length="42.00" shape="54.80,39.00 54.80,81.00"/>
        <lane id="e5_2" index="2" speed="13.89" length="42.00" shape="51.60,39.00 51.60,81.00"/>
    </edge>
    <edge id="e6" from="cs-end" to="road-to-cs" priority="-1">
        <lane id="e6_0" index="0" speed="13.89" length="42.72" shape="45.71,84.64 7.49,65.54"/>
    </edge>
    <edge id="e7" from="start2" to="end2" priority="-1" shape="100.00,0.00 150.00,100.00 200.00,100.00 300.00,200.00">
        <lane id="e7_0" index="0" speed="20.00" length="297.87" shape="101.43,-0.72 150.99,98.40 200.66,98.40 297.81,195.55"/>
    </edge>
    <edge id="e8" from="start3" to="end2" priority="-1">
        <lane id="e8_0" index="0" speed="13.89" length="193.97" shape="301.60,0.00 301.60,193.97"/>
    </edge>

    <tlLogic id="cs-start" type="static" programID="0" offset="0">
        <phase duration="82" state="GGG"/>
        <phase duration="3"  state="yyy"/>
        <phase duration="5"  state="rrr"/>
    </tlLogic>

    <junction id="cs-end" type="priority" x="50.00" y="85.00" incLanes="e5_0 e5_1 e5_2" intLanes=":cs-end_0_0" shape="59.60,81.00 50.00,81.00 49.60,83.02 49.11,83.55 48.41,83.76 47.52,83.65 46.42,83.21 44.99,86.07 49.46,87.96 53.11,88.76 55.95,88.46 57.98,87.06 59.19,84.58">
        <request index="0" response="0" foes="0" cont="0"/>
    </junction>
    <junction id="cs-start" type="traffic_light" x="50.00" y="35.00" incLanes="e4_0" intLanes=":cs-start_0_0 :cs-start_0_1 :cs-start_0_2" shape="50.00,39.00 59.60,39.00 59.19,35.42 57.98,32.94 55.95,31.54 53.11,31.24 49.46,32.04 44.99,33.93 46.42,36.79 48.41,36.24 49.11,36.45 49.60,36.98 49.90,37.83">
        <request index="0" response="000" foes="000" cont="0"/>
        <request index="1" response="000" foes="000" cont="0"/>
        <request index="2" response="000" foes="000" cont="0"/>
    </junction>
    <junction id="end" type="dead_end" x="0.00" y="200.00" incLanes="e3_0" intLanes="" shape="3.20,200.00 0.00,200.00"/>
    <junction id="end2" type="dead_end" x="300.00" y="200.00" incLanes="e8_0 e7_0" intLanes="" shape="303.20,193.97 300.00,193.97 299.88,194.69 299.73,194.83 299.53,194.84 299.26,194.70 298.94,194.41 296.68,196.68 298.67,198.41 300.30,199.28 301.57,199.26 302.48,198.37 303.02,196.61"/>
    <junction id="road-from-cs" type="priority" x="0.00" y="130.00" incLanes="e2_0" intLanes=":road-from-cs_0_0" shape="0.00,130.00 3.20,130.00 0.00,130.00">
        <request index="0" response="0" foes="0" cont="0"/>
    </junction>
    <junction id="road-to-cs" type="priority" x="0.00" y="60.00" incLanes="e6_0 e1_0" intLanes=":road-to-cs_0_0 :road-to-cs_1_0 :road-to-cs_2_0 :road-to-cs_3_0" shape="0.00,69.18 3.20,69.18 3.60,67.15 4.09,66.62 4.79,66.42 5.68,66.53 6.78,66.97 8.21,64.10 5.93,62.74 4.56,61.37 4.10,60.00 4.56,58.63 5.93,57.26 8.21,55.90 6.78,53.03 4.79,53.58 4.09,53.38 3.60,52.85 3.30,51.99 3.20,50.82 0.00,50.82">
        <request index="0" response="1000" foes="1000" cont="0"/>
        <request index="1" response="0100" foes="0100" cont="0"/>
        <request index="2" response="0000" foes="0010" cont="0"/>
        <request index="3" response="0000" foes="0001" cont="0"/>
    </junction>
    <junction id="start" type="dead_end" x="0.00" y="0.00" incLanes="" intLanes="" shape="0.00,0.00 3.20,0.00"/>
    <junction id="start2" type="dead_end" x="100.00" y="0.00" incLanes="" intLanes="" shape="100.00,0.00 102.86,-1.43"/>
    <junction id="start3" type="dead_end" x="300.00" y="0.00" incLanes="" intLanes="" shape="300.00,0.00 303.20,0.00"/>

    <connection from="e1" to="e4" fromLane="0" toLane="0" via=":road-to-cs_2_0" dir="r" state="M"/>
    <connection from="e1" to="e2" fromLane="0" toLane="0" via=":road-to-cs_3_0" dir="s" state="M"/>
    <connection from="e2" to="e3" fromLane="0" toLane="0" via=":road-from-cs_0_0" dir="s" state="M"/>
    <connection from="e4" to="e5" fromLane="0" toLane="0" via=":cs-start_0_0" tl="cs-start" linkIndex="0" dir="l" state="O"/>
    <connection from="e4" to="e5" fromLane="0" toLane="1" via=":cs-start_0_1" tl="cs-start" linkIndex="1" dir="l" state="O"/>
    <connection from="e4" to="e5" fromLane="0" toLane="2" via=":cs-start_0_2" tl="cs-start" linkIndex="2" dir="l" state="O"/>
    <connection from="e5" to="e6" fromLane="2" toLane="0" via=":cs-end_0_0" dir="l" state="M"/>
    <connection from="e6" to="e2" fromLane="0" toLane="0" via=":road-to-cs_0_0" dir="r" state="m"/>
    <connection from="e6" to="e4" fromLane="0" toLane="0" via=":road-to-cs_1_0" dir="l" state="m"/>

    <connection from=":cs-end_0" to="e6" fromLane="0" toLane="0" dir="l" state="M"/>
    <connection from=":cs-start_0" to="e5" fromLane="0" toLane="0" dir="l" state="M"/>
    <connection from=":cs-start_0" to="e5" fromLane="1" toLane="1" dir="l" state="M"/>
    <connection from=":cs-start_0" to="e5" fromLane="2" toLane="2" dir="l" state="M"/>
    <connection from=":road-from-cs_0" to="e3" fromLane="0" toLane="0" dir="s" state="M"/>
    <connection from=":road-to-cs_0" to="e2" fromLane="0" toLane="0" dir="r" state="M"/>
    <connection from=":road-to-cs_1" to="e4" fromLane="0" toLane="0" dir="l" state="M"/>
    <connection from=":road-to-cs_2" to="e4" fromLane="0" toLane="0" dir="r" state="M"/>
    <connection from=":road-to-cs_3" to="e2" fromLane="0" toLane="0" dir="s" state="M"/>

</net>
