<additional>
<!--
    <chargingStation id="cs0" lane="e1_0" startPos="1.0" endPos="4.0" power="22000" efficiency="0.95"/> 
    <chargingStation id="cs1" lane="e2_0" startPos="1.0" endPos="4.0" friendlyPos="true" power="150000">
      <param key="group" value="0"/>
      <param key="chargingPort" value="CCS2"/>
      <param key="allowedPowerOutput" value="150000"/>
      <param key="groupPower" value="200000"/>
      <param key="chargeDelay" value="5"/>
    </chargingStation>
    -->
    <chargingStation id="cs1" lane="e5_0" startPos="0.0" endPos="5.0" friendlyPos="true" power="150000">
      <param key="group" value="0"/>
      <param key="chargingPort" value="CCS2"/>
      <param key="allowedPowerOutput" value="150000"/>
      <param key="groupPower" value="200000"/>
      <param key="chargeDelay" value="5"/>
    </chargingStation>
    <chargingStation id="cs2" lane="e5_1" startPos="0.0" endPos="5.0" friendlyPos="true" power="150000">
      <param key="group" value="0"/>
      <param key="chargingPort" value="CCS2"/>
      <param key="allowedPowerOutput" value="150000"/>
      <param key="groupPower" value="200000"/>
      <param key="chargeDelay" value="5"/>
    </chargingStation>
    <chargingStation id="cs3" lane="e5_2" startPos="0.0" endPos="5.0" friendlyPos="true" power="150000">
      <param key="group" value="0"/>
      <param key="chargingPort" value="CCS2"/>
      <param key="allowedPowerOutput" value="150000"/>
      <param key="groupPower" value="200000"/>
      <param key="chargeDelay" value="5"/>
    </chargingStation>
    
    <tlLogic id="cs-start" type="static" programID="cs-gate" offset="0">
        <phase duration="2"  state="GGG"/>
        <phase duration="1"  state="yyy"/>
        <phase duration="20"  state="rrr"/>
    </tlLogic>
</additional>

