<edges>
    <edge id="e1" from="start" to="road-to-cs" priority="1">
        <lane index="0" speed="13.89" length="60.00"/>
    </edge>
    <edge id="e2" from="road-to-cs" to="road-from-cs" priority="1">
        <lane index="0" speed="13.89" length="70.00"/>
    </edge>
    <edge id="e3" from="road-from-cs" to="end" priority="1">
        <lane index="0" speed="13.89" length="70.00"/>
    </edge>
    <edge id="e4" from="road-to-cs" to="cs-start" priority="1">
        <lane index="0" speed="13.89" length="50.00"/>
    </edge>
    <edge id="e5" from="cs-start" to="cs-end" priority="1" numLanes="3">
        <lane index="0" speed="13.89" length="70.00" width="3.20"/>
        <lane index="1" speed="13.89" length="70.00" width="3.20"/>
        <lane index="2" speed="13.89" length="70.00" width="3.20"/>
    </edge>
    <edge id="e6" from="cs-end" to="road-to-cs" priority="-1">
        <lane index="0" speed="13.89" length="50.00"/>
    </edge>
    <edge id="e7" from="start2" to="end2" priority="-1">
        <lane index="0" speed="13.89"/>
    </edge>
</edges>

