<?xml version="1.0" encoding="UTF-8"?>

<!-- generated on 2025-07-14 12:07:18.505702 by osmWebWizard.py UNKNOWN
  options: 
-->

<additional xmlns:xsi="http://www.w3.org/2001/XMLSchema-instance" xsi:noNamespaceSchemaLocation="http://sumo.dlr.de/xsd/additional_file.xsd">
   <edgeData id="wizard_example" period="3600" file="edgeData.xml"/>

<chargingStation id="cs_-236178542#1_0" lane="cs_lanes_-236178542#1_0" startPos="30.0" endPos="35.0" friendlyPos="true" power="150000">
    <param key="group" value="100"/>
    <param key="chargingPort" value="CCS2"/>
    <param key="allowedPowerOutput" value="150000"/>
    <param key="groupPower" value="200000"/>
    <param key="chargeDelay" value="5"/>
</chargingStation>
<chargingStation id="cs_-236178542#1_1" lane="cs_lanes_-236178542#1_1" startPos="30.0" endPos="35.0" friendlyPos="true" power="150000">
    <param key="group" value="100"/>
    <param key="chargingPort" value="CCS2"/>
    <param key="allowedPowerOutput" value="150000"/>
    <param key="groupPower" value="200000"/>
    <param key="chargeDelay" value="5"/>
</chargingStation>
<chargingStation id="cs_-236178542#1_2" lane="cs_lanes_-236178542#1_2" startPos="30.0" endPos="35.0" friendlyPos="true" power="150000">
    <param key="group" value="100"/>
    <param key="chargingPort" value="CCS2"/>
    <param key="allowedPowerOutput" value="150000"/>
    <param key="groupPower" value="200000"/>
    <param key="chargeDelay" value="5"/>
</chargingStation>
</additional>
