<?xml version="1.0" encoding="UTF-8"?>

<!-- generated on 2025-07-14 12:07:13.894496 by osmWebWizard.py UNKNOWN
<configuration>
    <net-file value="/home/raquel/Sumo/2025-07-14-12-06-58/osm.net.xml.gz"/>
    <output-trip-file value="/home/raquel/Sumo/2025-07-14-12-06-58/osm.passenger.trips.xml"/>
    <route-file value="/home/raquel/Sumo/2025-07-14-12-06-58/osm.passenger.rou.xml"/>
    <prefix value="veh"/>
    <trip-attributes value="departLane=&quot;best&quot;"/>
    <fringe-start-attributes value="departSpeed=&quot;max&quot;"/>
    <vehicle-class value="passenger"/>
    <lanes value="True"/>
    <fringe-factor value="5"/>
    <allow-fringe.min-length value="1000.0"/>
    <edge-permission value="passenger"/>
    <via-edge-types value="highway.motorway,highway.motorway_link,highway.trunk_link,highway.primary_link,highway.secondary_link,highway.tertiary_link"/>
    <min-distance value="300.0"/>
    <min-distance.fringe value="10.0"/>
    <remove-loops value="True"/>
    <validate value="True"/>
    <insertion-density value="12.0"/>
</configuration>
-->

<routes xmlns:xsi="http://www.w3.org/2001/XMLSchema-instance" xsi:noNamespaceSchemaLocation="http://sumo.dlr.de/xsd/routes_file.xsd">
    <vType id="veh_passenger" vClass="passenger"/>
    <trip id="veh0" depart="0.00" from="396962116#2" to="-19747865" departLane="best" type="veh_passenger"/>
    <trip id="veh1" depart="0.26" from="141388233#0" to="1342183271#0" departLane="best" type="veh_passenger" departSpeed="max"/>
    <trip id="veh2" depart="0.51" from="53380861" to="410901964#0-AddedOffRampEdge" departLane="best" type="veh_passenger"/>
    <trip id="veh3" depart="0.77" from="69975864#0-AddedOffRampEdge" to="-40949219" departLane="best" type="veh_passenger"/>
    <trip id="veh4" depart="1.03" from="238327268#0" to="-237277455" departLane="best" type="veh_passenger"/>
    <trip id="veh5" depart="1.29" from="129211897" to="284964627#0" departLane="best" type="veh_passenger"/>
    <trip id="veh6" depart="1.54" from="-222105714" to="1244954595#1" departLane="best" type="veh_passenger"/>
    <trip id="veh7" depart="1.80" from="39723679" to="310425662" departLane="best" type="veh_passenger"/>
    <trip id="veh8" depart="2.06" from="1303261477#0" to="34761865#0-AddedOffRampEdge" departLane="best" type="veh_passenger" departSpeed="max"/>
    <trip id="veh9" depart="2.31" from="58993469#0" to="-117107052" departLane="best" type="veh_passenger"/>
    <trip id="veh10" depart="2.57" from="58800399" to="444016330#0" departLane="best" type="veh_passenger"/>
    <trip id="veh11" depart="2.83" from="19748167#0" to="1126860943#1-AddedOnRampEdge" departLane="best" type="veh_passenger"/>
    <trip id="veh12" depart="3.09" from="868601527" to="207522011#0" departLane="best" type="veh_passenger"/>
    <trip id="veh13" depart="3.34" from="-466158408" to="-55189244#1" departLane="best" type="veh_passenger"/>
    <trip id="veh14" depart="3.60" from="638998416#0" to="370582421#0" departLane="best" type="veh_passenger"/>
    <trip id="veh15" depart="3.86" from="58989901#0" to="508273041" departLane="best" type="veh_passenger"/>
    <trip id="veh16" depart="4.12" from="23074687" to="312982855" departLane="best" type="veh_passenger" departSpeed="max"/>
    <trip id="veh17" depart="4.37" from="61912625#0" to="380098729#0" departLane="best" type="veh_passenger"/>
    <trip id="veh18" depart="4.63" from="639628960" to="332101605#0" departLane="best" type="veh_passenger"/>
    <trip id="veh19" depart="4.89" from="444273625#0" to="-28327851#2" departLane="best" type="veh_passenger"/>
    <trip id="veh20" depart="5.14" from="1322975098#0" to="183975081" departLane="best" type="veh_passenger"/>
    <trip id="veh21" depart="5.40" from="-370582413" to="1372160682" departLane="best" type="veh_passenger" departSpeed="max"/>
    <trip id="veh22" depart="5.66" from="-561004984#1" to="159005017#0" departLane="best" type="veh_passenger"/>
    <trip id="veh23" depart="5.92" from="387205575" to="23067338#2" departLane="best" type="veh_passenger"/>
    <trip id="veh24" depart="6.17" from="22937616" to="1284948978" departLane="best" type="veh_passenger"/>
    <trip id="veh25" depart="6.43" from="1410875900" to="77492300" departLane="best" type="veh_passenger"/>
    <trip id="veh26" depart="6.69" from="39723592#6" to="371745106#2" departLane="best" type="veh_passenger"/>
    <trip id="veh27" depart="6.94" from="1158446376#0" to="505332840#0" departLane="best" type="veh_passenger"/>
    <trip id="veh28" depart="7.20" from="1138018312#0" to="23126497" departLane="best" type="veh_passenger"/>
    <trip id="veh29" depart="7.46" from="98742944#1" to="39723586" departLane="best" type="veh_passenger"/>
    <trip id="veh30" depart="7.72" from="30728917" to="427558757#0" departLane="best" type="veh_passenger" departSpeed="max"/>
    <trip id="veh31" depart="7.97" from="638719628#0" to="57722450#1" departLane="best" type="veh_passenger"/>
    <trip id="veh32" depart="8.23" from="192972962#0" to="142578496#1-AddedOffRampEdge" departLane="best" type="veh_passenger"/>
    <trip id="veh33" depart="8.49" from="66496249" to="194904830#3" departLane="best" type="veh_passenger" departSpeed="max"/>
    <trip id="veh34" depart="8.74" from="403888823#0" to="237277458" departLane="best" type="veh_passenger"/>
    <trip id="veh35" depart="9.00" from="73037095" to="26652526" departLane="best" type="veh_passenger"/>
    <trip id="veh36" depart="9.26" from="140179502" to="1391650914" departLane="best" type="veh_passenger"/>
    <trip id="veh37" depart="9.52" from="31192965" to="1413805996#0" departLane="best" type="veh_passenger"/>
    <trip id="veh38" depart="9.77" from="331281690#0" to="72473718" departLane="best" type="veh_passenger"/>
    <trip id="veh39" depart="10.03" from="231562523" to="1323409157#0" departLane="best" type="veh_passenger"/>
    <trip id="veh40" depart="10.29" from="99368475#8" to="285531483" departLane="best" type="veh_passenger"/>
    <trip id="veh41" depart="10.55" from="-447598476" to="-28354664#0" departLane="best" type="veh_passenger"/>
    <trip id="veh42" depart="10.80" from="-639625555" to="387205576" departLane="best" type="veh_passenger"/>
    <trip id="veh43" depart="11.06" from="577366806" to="238832251" departLane="best" type="veh_passenger" departSpeed="max"/>
    <trip id="veh44" depart="11.32" from="-318617512#0" to="23126546#0" departLane="best" type="veh_passenger"/>
    <trip id="veh45" depart="11.57" from="893911173" to="642984982#0" departLane="best" type="veh_passenger"/>
    <trip id="veh46" depart="11.83" from="-1353127832#1" to="48500486" departLane="best" type="veh_passenger"/>
    <trip id="veh47" depart="12.09" from="415822721" to="298745564#1-AddedOnRampEdge" departLane="best" type="veh_passenger"/>
    <trip id="veh48" depart="12.35" from="1410875900" to="39723592#0" departLane="best" type="veh_passenger"/>
    <trip id="veh49" depart="12.60" from="-641189454" to="239210564#0" departLane="best" type="veh_passenger" departSpeed="max"/>
    <trip id="veh50" depart="12.86" from="24296357" to="81735377#5" departLane="best" type="veh_passenger"/>
    <trip id="veh51" depart="13.12" from="661780001" to="141388231#2" departLane="best" type="veh_passenger" departSpeed="max"/>
    <trip id="veh52" depart="13.37" from="28338767#0" to="116804185" departLane="best" type="veh_passenger"/>
    <trip id="veh53" depart="13.63" from="73037085" to="66496251#0" departLane="best" type="veh_passenger"/>
    <trip id="veh54" depart="13.89" from="183213746" to="39723103" departLane="best" type="veh_passenger"/>
    <trip id="veh55" depart="14.15" from="36731254#0" to="1110434753-AddedOnRampEdge" departLane="best" type="veh_passenger"/>
    <trip id="veh56" depart="14.40" from="55930509#0" to="30183813#0" departLane="best" type="veh_passenger"/>
    <trip id="veh57" depart="14.66" from="57722450#1" to="293100270#7" departLane="best" type="veh_passenger"/>
    <trip id="veh58" depart="14.92" from="-1056895529#0" to="19745621#2" departLane="best" type="veh_passenger"/>
    <trip id="veh59" depart="15.18" from="-177343973" to="762340272" departLane="best" type="veh_passenger"/>
    <trip id="veh60" depart="15.43" from="66496255#0" to="638509792" departLane="best" type="veh_passenger"/>
    <trip id="veh61" depart="15.69" from="187102707#1" to="-30183813#0" departLane="best" type="veh_passenger"/>
    <trip id="veh62" depart="15.95" from="66496251#0" to="807531848#0" departLane="best" type="veh_passenger"/>
    <trip id="veh63" depart="16.20" from="-395554572#1" to="28110345#0" departLane="best" type="veh_passenger"/>
    <trip id="veh64" depart="16.46" from="-334892162#3" to="56048670" departLane="best" type="veh_passenger"/>
    <trip id="veh65" depart="16.72" from="56048708" to="-893655086#1" departLane="best" type="veh_passenger"/>
    <trip id="veh66" depart="16.98" from="26652568#2" to="312207006" departLane="best" type="veh_passenger"/>
    <trip id="veh67" depart="17.23" from="140179507" to="66676642" departLane="best" type="veh_passenger"/>
    <trip id="veh68" depart="17.49" from="238327270#0" to="128673582#5" departLane="best" type="veh_passenger"/>
    <trip id="veh69" depart="17.75" from="293098208" to="508273041" departLane="best" type="veh_passenger"/>
    <trip id="veh70" depart="18.00" from="123316121" to="194889328-AddedOnRampEdge" departLane="best" type="veh_passenger"/>
    <trip id="veh71" depart="18.26" from="98991764" to="401680983#0" departLane="best" type="veh_passenger"/>
    <trip id="veh72" depart="18.52" from="238833204#0" to="28604983" departLane="best" type="veh_passenger"/>
    <trip id="veh73" depart="18.78" from="-73241980" to="1354697852" departLane="best" type="veh_passenger"/>
    <trip id="veh74" depart="19.03" from="19746250" to="34760703#0" departLane="best" type="veh_passenger"/>
    <trip id="veh75" depart="19.29" from="132760401" to="1323409167#0" departLane="best" type="veh_passenger"/>
    <trip id="veh76" depart="19.55" from="-339756998" to="39659759" departLane="best" type="veh_passenger"/>
    <trip id="veh77" depart="19.80" from="1323409164#0" to="73037083#0" departLane="best" type="veh_passenger"/>
    <trip id="veh78" depart="20.06" from="639346211#0" to="-36284088" departLane="best" type="veh_passenger"/>
    <trip id="veh79" depart="20.32" from="1368388731#2" to="40910896#3-AddedOnRampEdge" departLane="best" type="veh_passenger"/>
    <trip id="veh80" depart="20.58" from="765839124" to="329159953" departLane="best" type="veh_passenger"/>
    <trip id="veh81" depart="20.83" from="26652545#3" to="57732282" departLane="best" type="veh_passenger"/>
    <trip id="veh82" depart="21.09" from="58989916#0" to="1229272292" departLane="best" type="veh_passenger"/>
    <trip id="veh83" depart="21.35" from="-510585241#1" to="239206342-AddedOnRampEdge" departLane="best" type="veh_passenger"/>
    <trip id="veh84" depart="21.61" from="238327270#3" to="27551753" departLane="best" type="veh_passenger"/>
    <trip id="veh85" depart="21.86" from="49399553#0" to="40981009" departLane="best" type="veh_passenger"/>
    <trip id="veh86" depart="22.12" from="977498176#0" to="-561004978" departLane="best" type="veh_passenger"/>
    <trip id="veh87" depart="22.38" from="236178542#1" to="211012794" departLane="best" type="veh_passenger"/>
    <trip id="veh88" depart="22.63" from="639628960" to="1391650916" departLane="best" type="veh_passenger"/>
    <trip id="veh89" depart="22.89" from="1210272939" to="257784929" departLane="best" type="veh_passenger" departSpeed="max"/>
    <trip id="veh90" depart="23.15" from="238327267#0" to="159005018#0" departLane="best" type="veh_passenger"/>
    <trip id="veh91" depart="23.41" from="1382373141#0" to="75110946" departLane="best" type="veh_passenger"/>
    <trip id="veh92" depart="23.66" from="239077124#0" to="642984985" departLane="best" type="veh_passenger"/>
    <trip id="veh93" depart="23.92" from="298745568" to="-285531477" departLane="best" type="veh_passenger"/>
    <trip id="veh94" depart="24.18" from="99368499#0" to="638713843#1" departLane="best" type="veh_passenger"/>
    <trip id="veh95" depart="24.43" from="893655086#0" to="761149066#0" departLane="best" type="veh_passenger"/>
    <trip id="veh96" depart="24.69" from="639334623" to="1150103126" departLane="best" type="veh_passenger"/>
    <trip id="veh97" depart="24.95" from="278197973" to="130524181" departLane="best" type="veh_passenger"/>
    <trip id="veh98" depart="25.21" from="231901486#0" to="-30245182#2" departLane="best" type="veh_passenger"/>
    <trip id="veh99" depart="25.46" from="23074687" to="977498176#0-AddedOnRampEdge" departLane="best" type="veh_passenger" departSpeed="max"/>
    <trip id="veh100" depart="25.72" from="140179507" to="57732279#3" departLane="best" type="veh_passenger"/>
    <trip id="veh101" depart="25.98" from="24297107#0" to="238833204#0" departLane="best" type="veh_passenger"/>
    <trip id="veh102" depart="26.23" from="868601527" to="98991764" departLane="best" type="veh_passenger"/>
    <trip id="veh103" depart="26.49" from="30728521" to="48500480#1" departLane="best" type="veh_passenger"/>
    <trip id="veh104" depart="26.75" from="1110434753" to="186526645" departLane="best" type="veh_passenger"/>
    <trip id="veh105" depart="27.01" from="893655086#0" to="332163729#0" departLane="best" type="veh_passenger"/>
    <trip id="veh106" depart="27.26" from="293100270#6" to="55495073#0" departLane="best" type="veh_passenger"/>
    <trip id="veh107" depart="27.52" from="-30245182#2" to="339757000" departLane="best" type="veh_passenger"/>
    <trip id="veh108" depart="27.78" from="28354839#0" to="639345197#1" departLane="best" type="veh_passenger"/>
    <trip id="veh109" depart="28.04" from="1110456095" to="890675828#0" departLane="best" type="veh_passenger" departSpeed="max"/>
    <trip id="veh110" depart="28.29" from="339757002#0" to="410901963#0" departLane="best" type="veh_passenger"/>
    <trip id="veh111" depart="28.55" from="1364300471#1" to="-75876814#3" departLane="best" type="veh_passenger"/>
    <trip id="veh112" depart="28.81" from="690750125#0" to="1391650912" departLane="best" type="veh_passenger"/>
    <trip id="veh113" depart="29.06" from="339757000" to="380099002#4" departLane="best" type="veh_passenger"/>
    <trip id="veh114" depart="29.32" from="285586000#0" to="772689033" departLane="best" type="veh_passenger"/>
    <trip id="veh115" depart="29.58" from="1370956307#0" to="237277458" departLane="best" type="veh_passenger"/>
    <trip id="veh116" depart="29.84" from="40891474" to="187935955#0" departLane="best" type="veh_passenger"/>
    <trip id="veh117" depart="30.09" from="193803703#0" to="55789764#0" departLane="best" type="veh_passenger"/>
    <trip id="veh118" depart="30.35" from="-36356418#3" to="26648234" departLane="best" type="veh_passenger"/>
    <trip id="veh119" depart="30.61" from="99368489" to="99028633#0" departLane="best" type="veh_passenger"/>
    <trip id="veh120" depart="30.86" from="-366225393" to="130420382" departLane="best" type="veh_passenger"/>
    <trip id="veh121" depart="31.12" from="140179507" to="766164301" departLane="best" type="veh_passenger"/>
    <trip id="veh122" depart="31.38" from="22747513" to="1137958424" departLane="best" type="veh_passenger"/>
    <trip id="veh123" depart="31.64" from="636999546#0" to="450283699" departLane="best" type="veh_passenger" departSpeed="max"/>
    <trip id="veh124" depart="31.89" from="370210012#0" to="98742924#0" departLane="best" type="veh_passenger"/>
    <trip id="veh125" depart="32.15" from="403277396" to="-127393859#10" departLane="best" type="veh_passenger"/>
    <trip id="veh126" depart="32.41" from="60045914#0" to="187102707#9" departLane="best" type="veh_passenger"/>
    <trip id="veh127" depart="32.67" from="405655304#0" to="78051506#0" departLane="best" type="veh_passenger"/>
    <trip id="veh128" depart="32.92" from="-98742923" to="-700944781#2" departLane="best" type="veh_passenger"/>
    <trip id="veh129" depart="33.18" from="-631138218#2" to="313014282#0" departLane="best" type="veh_passenger"/>
    <trip id="veh130" depart="33.44" from="141388231#2" to="370582425" departLane="best" type="veh_passenger"/>
    <trip id="veh131" depart="33.69" from="46654167#0" to="126765693" departLane="best" type="veh_passenger"/>
    <trip id="veh132" depart="33.95" from="384980597" to="141388231#3" departLane="best" type="veh_passenger"/>
    <trip id="veh133" depart="34.21" from="27879699#0" to="73037083#0" departLane="best" type="veh_passenger"/>
    <trip id="veh134" depart="34.47" from="638998413#0" to="-474640497" departLane="best" type="veh_passenger"/>
    <trip id="veh135" depart="34.72" from="238327270#3" to="157510696#0" departLane="best" type="veh_passenger"/>
    <trip id="veh136" depart="34.98" from="-113880679#0" to="57716594#0" departLane="best" type="veh_passenger"/>
    <trip id="veh137" depart="35.24" from="395554555" to="141362710#0" departLane="best" type="veh_passenger"/>
    <trip id="veh138" depart="35.49" from="543680244" to="312982854" departLane="best" type="veh_passenger" departSpeed="max"/>
    <trip id="veh139" depart="35.75" from="238758031#1" to="-1342183271#0" departLane="best" type="veh_passenger"/>
    <trip id="veh140" depart="36.01" from="-370210012#2" to="69975864#0" departLane="best" type="veh_passenger"/>
    <trip id="veh141" depart="36.27" from="72612421" to="311743580" departLane="best" type="veh_passenger"/>
    <trip id="veh142" depart="36.52" from="636999546#0" to="336951724#1" departLane="best" type="veh_passenger" departSpeed="max"/>
    <trip id="veh143" depart="36.78" from="1092074153" to="-893655079" departLane="best" type="veh_passenger" departSpeed="max"/>
    <trip id="veh144" depart="37.04" from="187102707#4" to="72875452#1" departLane="best" type="veh_passenger"/>
    <trip id="veh145" depart="37.29" from="577881816#0" to="642984982#0" departLane="best" type="veh_passenger"/>
    <trip id="veh146" depart="37.55" from="70971059#0" to="1284948979" departLane="best" type="veh_passenger"/>
    <trip id="veh147" depart="37.81" from="1382373141#0" to="-59990696#0" departLane="best" type="veh_passenger"/>
    <trip id="veh148" depart="38.07" from="57722453#0" to="69975864#0-AddedOffRampEdge" departLane="best" type="veh_passenger"/>
    <trip id="veh149" depart="38.32" from="237277456" to="380100209#0" departLane="best" type="veh_passenger"/>
    <trip id="veh150" depart="38.58" from="1110434750" to="765839123" departLane="best" type="veh_passenger"/>
    <trip id="veh151" depart="38.84" from="641189454" to="928131457" departLane="best" type="veh_passenger"/>
    <trip id="veh152" depart="39.10" from="59085711" to="67332791#0" departLane="best" type="veh_passenger"/>
    <trip id="veh153" depart="39.35" from="195576811" to="765839124" departLane="best" type="veh_passenger" departSpeed="max"/>
    <trip id="veh154" depart="39.61" from="579982319" to="644804909" departLane="best" type="veh_passenger"/>
    <trip id="veh155" depart="39.87" from="59085711" to="142578496#1" departLane="best" type="veh_passenger"/>
    <trip id="veh156" depart="40.12" from="57732282" to="-639346211#1" departLane="best" type="veh_passenger"/>
    <trip id="veh157" depart="40.38" from="65629687#0" to="640746447" departLane="best" type="veh_passenger"/>
    <trip id="veh158" depart="40.64" from="130420753" to="61278261" departLane="best" type="veh_passenger"/>
    <trip id="veh159" depart="40.90" from="577415041" to="136399246" departLane="best" type="veh_passenger"/>
    <trip id="veh160" depart="41.15" from="-19747779" to="1229272307" departLane="best" type="veh_passenger"/>
    <trip id="veh161" depart="41.41" from="195571137" to="644804909" departLane="best" type="veh_passenger"/>
    <trip id="veh162" depart="41.67" from="893087115" to="159005019#0" departLane="best" type="veh_passenger"/>
    <trip id="veh163" depart="41.92" from="396962121#2" to="238190574#0" departLane="best" type="veh_passenger"/>
    <trip id="veh164" depart="42.18" from="97635647" to="297806874" departLane="best" type="veh_passenger"/>
    <trip id="veh165" depart="42.44" from="77481539" to="-700944781#2" departLane="best" type="veh_passenger"/>
    <trip id="veh166" depart="42.70" from="893655092#0" to="116804185" departLane="best" type="veh_passenger"/>
    <trip id="veh167" depart="42.95" from="891841345#0" to="142267610" departLane="best" type="veh_passenger"/>
    <trip id="veh168" depart="43.21" from="-638996002" to="239210562" departLane="best" type="veh_passenger"/>
    <trip id="veh169" depart="43.47" from="48785154" to="194904830#2" departLane="best" type="veh_passenger"/>
    <trip id="veh170" depart="43.72" from="36356441#1" to="285587762#0" departLane="best" type="veh_passenger"/>
    <trip id="veh171" depart="43.98" from="23117244#1" to="331928583#0" departLane="best" type="veh_passenger"/>
    <trip id="veh172" depart="44.24" from="1391009649" to="459560909" departLane="best" type="veh_passenger"/>
    <trip id="veh173" depart="44.50" from="-1121908324#1" to="760949348#0" departLane="best" type="veh_passenger"/>
    <trip id="veh174" depart="44.75" from="293007366#0" to="48500483" departLane="best" type="veh_passenger"/>
    <trip id="veh175" depart="45.01" from="54617128#2" to="40949130" departLane="best" type="veh_passenger"/>
    <trip id="veh176" depart="45.27" from="22743508#0" to="-347094564#2" departLane="best" type="veh_passenger"/>
    <trip id="veh177" depart="45.53" from="405655304#0" to="19748287" departLane="best" type="veh_passenger"/>
    <trip id="veh178" depart="45.78" from="190769101" to="639334649#1" departLane="best" type="veh_passenger" departSpeed="max"/>
    <trip id="veh179" depart="46.04" from="187102707#6" to="238327268#0" departLane="best" type="veh_passenger"/>
    <trip id="veh180" depart="46.30" from="236178542#0" to="186184931#0" departLane="best" type="veh_passenger" departSpeed="max"/>
    <trip id="veh181" depart="46.55" from="-786019233" to="238830423#0" departLane="best" type="veh_passenger"/>
    <trip id="veh182" depart="46.81" from="77663859#0" to="410901965#0" departLane="best" type="veh_passenger"/>
    <trip id="veh183" depart="47.07" from="712561447" to="376747000#0" departLane="best" type="veh_passenger"/>
    <trip id="veh184" depart="47.33" from="183744457" to="31192915" departLane="best" type="veh_passenger"/>
    <trip id="veh185" depart="47.58" from="-1044163467#1" to="183213749#0" departLane="best" type="veh_passenger"/>
    <trip id="veh186" depart="47.84" from="238758034" to="332962506" departLane="best" type="veh_passenger"/>
    <trip id="veh187" depart="48.10" from="403277402#0" to="26652570" departLane="best" type="veh_passenger"/>
    <trip id="veh188" depart="48.35" from="239075751#0" to="130524181" departLane="best" type="veh_passenger"/>
    <trip id="veh189" depart="48.61" from="26652550#0" to="73037025" departLane="best" type="veh_passenger"/>
    <trip id="veh190" depart="48.87" from="-395554555" to="28604213#0" departLane="best" type="veh_passenger"/>
    <trip id="veh191" depart="49.13" from="380326838-AddedOffRampEdge" to="207283319" departLane="best" type="veh_passenger"/>
    <trip id="veh192" depart="49.38" from="60045952#3" to="555569689#1" departLane="best" type="veh_passenger"/>
    <trip id="veh193" depart="49.64" from="40898651" to="1354697852" departLane="best" type="veh_passenger"/>
    <trip id="veh194" depart="49.90" from="1229272309#1" to="-19747856" departLane="best" type="veh_passenger"/>
    <trip id="veh195" depart="50.15" from="1374141275#0" to="27879591#0" departLane="best" type="veh_passenger" departSpeed="max"/>
    <trip id="veh196" depart="50.41" from="639334628#2" to="-36356418#3" departLane="best" type="veh_passenger"/>
    <trip id="veh197" depart="50.67" from="238191817#0" to="395554555" departLane="best" type="veh_passenger"/>
    <trip id="veh198" depart="50.93" from="1229265841" to="444016328" departLane="best" type="veh_passenger"/>
    <trip id="veh199" depart="51.18" from="280721542" to="1386288741" departLane="best" type="veh_passenger"/>
    <trip id="veh200" depart="51.44" from="403888828#0" to="-1156001077" departLane="best" type="veh_passenger"/>
    <trip id="veh201" depart="51.70" from="55461517#0" to="575397256#1" departLane="best" type="veh_passenger"/>
    <trip id="veh202" depart="51.96" from="-61912607" to="238866118#0" departLane="best" type="veh_passenger"/>
    <trip id="veh203" depart="52.21" from="1158446383#1-AddedOnRampEdge" to="868601527" departLane="best" type="veh_passenger"/>
    <trip id="veh204" depart="52.47" from="28528862" to="-28383004#1" departLane="best" type="veh_passenger"/>
    <trip id="veh205" depart="52.73" from="1382373139#0" to="639335861" departLane="best" type="veh_passenger"/>
    <trip id="veh206" depart="52.98" from="24297107#4" to="58729671" departLane="best" type="veh_passenger"/>
    <trip id="veh207" depart="53.24" from="40696776#0" to="98742933" departLane="best" type="veh_passenger"/>
    <trip id="veh208" depart="53.50" from="347094564#0" to="81667210" departLane="best" type="veh_passenger"/>
    <trip id="veh209" depart="53.76" from="69975864#0" to="37589666#0" departLane="best" type="veh_passenger"/>
    <trip id="veh210" depart="54.01" from="477481733" to="284964626#0" departLane="best" type="veh_passenger"/>
    <trip id="veh211" depart="54.27" from="631134400#0" to="31192915" departLane="best" type="veh_passenger"/>
    <trip id="veh212" depart="54.53" from="69986967#0" to="55189235" departLane="best" type="veh_passenger"/>
    <trip id="veh213" depart="54.78" from="26652568#1" to="1413555722#0" departLane="best" type="veh_passenger"/>
    <trip id="veh214" depart="55.04" from="1375655932#0" to="39723103" departLane="best" type="veh_passenger"/>
    <trip id="veh215" depart="55.30" from="56048708" to="28605167#6" departLane="best" type="veh_passenger"/>
    <trip id="veh216" depart="55.56" from="37850944" to="157153624-AddedOnRampEdge" departLane="best" type="veh_passenger"/>
    <trip id="veh217" depart="55.81" from="-370210020" to="173802919" departLane="best" type="veh_passenger"/>
    <trip id="veh218" depart="56.07" from="1413805996#0" to="195571837#0" departLane="best" type="veh_passenger"/>
    <trip id="veh219" depart="56.33" from="293098215#0" to="1044163468#1" departLane="best" type="veh_passenger"/>
    <trip id="veh220" depart="56.59" from="132782209" to="43648194" departLane="best" type="veh_passenger"/>
    <trip id="veh221" depart="56.84" from="449705945#0" to="-331928454" departLane="best" type="veh_passenger" departSpeed="max"/>
    <trip id="veh222" depart="57.10" from="237277458" to="30326489#0" departLane="best" type="veh_passenger"/>
    <trip id="veh223" depart="57.36" from="238193475" to="1283635224" departLane="best" type="veh_passenger" departSpeed="max"/>
    <trip id="veh224" depart="57.61" from="238193543#0" to="73037067" departLane="best" type="veh_passenger"/>
    <trip id="veh225" depart="57.87" from="330962464#0" to="441631548" departLane="best" type="veh_passenger"/>
    <trip id="veh226" depart="58.13" from="639345197#0-AddedOffRampEdge" to="561004981" departLane="best" type="veh_passenger"/>
    <trip id="veh227" depart="58.39" from="23108145#0-AddedOffRampEdge" to="-1160122274" departLane="best" type="veh_passenger"/>
    <trip id="veh228" depart="58.64" from="208421641#0" to="55815120#4" departLane="best" type="veh_passenger"/>
    <trip id="veh229" depart="58.90" from="639334647" to="81735377#1" departLane="best" type="veh_passenger"/>
    <trip id="veh230" depart="59.16" from="238193503#0" to="55495072#1" departLane="best" type="veh_passenger"/>
    <trip id="veh231" depart="59.41" from="293714100#0" to="370210022#0" departLane="best" type="veh_passenger"/>
    <trip id="veh232" depart="59.67" from="1303261477#0" to="1323409157#0" departLane="best" type="veh_passenger" departSpeed="max"/>
    <trip id="veh233" depart="59.93" from="238831817" to="-237277454" departLane="best" type="veh_passenger"/>
    <trip id="veh234" depart="60.19" from="19745623#0" to="421001288#2" departLane="best" type="veh_passenger"/>
    <trip id="veh235" depart="60.44" from="236912685#0" to="1149942713" departLane="best" type="veh_passenger"/>
    <trip id="veh236" depart="60.70" from="265723207#0" to="-893655084" departLane="best" type="veh_passenger"/>
    <trip id="veh237" depart="60.96" from="37589872#0" to="-22742149#1" departLane="best" type="veh_passenger"/>
    <trip id="veh238" depart="61.21" from="23126546#4" to="318108395#0" departLane="best" type="veh_passenger"/>
    <trip id="veh239" depart="61.47" from="-23057154" to="39723592#2" departLane="best" type="veh_passenger"/>
    <trip id="veh240" depart="61.73" from="1019254307" to="26652545#3" departLane="best" type="veh_passenger"/>
    <trip id="veh241" depart="61.99" from="-285586000#4" to="23125818#0" departLane="best" type="veh_passenger"/>
    <trip id="veh242" depart="62.24" from="127353237#0" to="19747258" departLane="best" type="veh_passenger"/>
    <trip id="veh243" depart="62.50" from="55854595" to="23125818#0" departLane="best" type="veh_passenger"/>
    <trip id="veh244" depart="62.76" from="55495072#1" to="638509795#0" departLane="best" type="veh_passenger"/>
    <trip id="veh245" depart="63.02" from="1386288737" to="-387588987" departLane="best" type="veh_passenger"/>
    <trip id="veh246" depart="63.27" from="-177343973" to="30183813#0" departLane="best" type="veh_passenger"/>
    <trip id="veh247" depart="63.53" from="99368512" to="22295875#0" departLane="best" type="veh_passenger"/>
    <trip id="veh248" depart="63.79" from="397946300" to="57722464#0" departLane="best" type="veh_passenger"/>
    <trip id="veh249" depart="64.04" from="397946304#0" to="55848495" departLane="best" type="veh_passenger"/>
    <trip id="veh250" depart="64.30" from="807531848#1" to="1244954595#2" departLane="best" type="veh_passenger"/>