<?xml version="1.0" encoding="UTF-8"?>

<!-- generated on 2025-09-19 13:24:53 by Eclipse SUMO netconvert Version 1.24.0
<netconvertConfiguration xmlns:xsi="http://www.w3.org/2001/XMLSchema-instance" xsi:noNamespaceSchemaLocation="http://sumo.dlr.de/xsd/netconvertConfiguration.xsd">

    <input>
        <sumo-net-file value="osm.net.xml"/>
    </input>

    <output>
        <plain-output-prefix value="network"/>
        <output.street-names value="true"/>
    </output>

    <processing>
        <geometry.min-radius.fix.railways value="false"/>
        <geometry.avoid-overlap value="false"/>
        <geometry.max-grade.fix value="false"/>
        <offset.disable-normalization value="true"/>
        <lefthand value="0"/>
    </processing>

    <junctions>
        <no-turnarounds value="true"/>
        <junctions.corner-detail value="5"/>
        <junctions.limit-turn-speed value="5.50"/>
        <rectangular-lane-cut value="0"/>
    </junctions>

    <pedestrian>
        <walkingareas value="0"/>
    </pedestrian>

</netconvertConfiguration>
-->

<tlLogics version="1.20" xmlns:xsi="http://www.w3.org/2001/XMLSchema-instance" xsi:noNamespaceSchemaLocation="http://sumo.dlr.de/xsd/tllogic_file.xsd">
    <tlLogic id="1188156665" type="actuated" programID="0" offset="0">
        <phase duration="42" state="GGgrrrGGg" minDur="5" maxDur="50"/>
        <phase duration="3"  state="GGyrrryyy"/>
        <phase duration="42" state="GGrGGGrrr" minDur="5" maxDur="50"/>
        <phase duration="3"  state="GGryyyrrr"/>
    </tlLogic>
    <tlLogic id="12742190904" type="actuated" programID="0" offset="0">
        <phase duration="79" state="GGGgGGg" minDur="13" maxDur="50"/>
        <phase duration="6"  state="yyyyyyy"/>
        <phase duration="5"  state="rrrrrrr"/>
    </tlLogic>
    <tlLogic id="1288315317" type="actuated" programID="0" offset="0">
        <phase duration="79" state="GGGG" minDur="13" maxDur="50"/>
        <phase duration="6"  state="yyyy"/>
        <phase duration="5"  state="rrrr"/>
    </tlLogic>
    <tlLogic id="12954663982" type="actuated" programID="0" offset="0">
        <phase duration="42" state="Grrr" minDur="5" maxDur="50"/>
        <phase duration="3"  state="yrrr"/>
        <phase duration="42" state="rGGG" minDur="5" maxDur="50"/>
        <phase duration="3"  state="ryyy"/>
    </tlLogic>
    <tlLogic id="1409966725" type="actuated" programID="0" offset="0">
        <phase duration="39" state="GGGrr" minDur="13" maxDur="50"/>
        <phase duration="6"  state="yyyrr"/>
        <phase duration="39" state="rrrGG" minDur="5" maxDur="50"/>
        <phase duration="6"  state="rrryy"/>
    </tlLogic>
    <tlLogic id="192021046" type="actuated" programID="0" offset="0">
        <phase duration="42" state="GGrr" minDur="5" maxDur="50"/>
        <phase duration="3"  state="yyrr"/>
        <phase duration="42" state="rrGG" minDur="5" maxDur="50"/>
        <phase duration="3"  state="rryy"/>
    </tlLogic>
    <tlLogic id="1935807073" type="actuated" programID="0" offset="0">
        <phase duration="80" state="GG" minDur="10" maxDur="50"/>
        <phase duration="5"  state="yy"/>
        <phase duration="5"  state="rr"/>
    </tlLogic>
    <tlLogic id="1937187745" type="actuated" programID="0" offset="0">
        <phase duration="82" state="GGG" minDur="5" maxDur="50"/>
        <phase duration="3"  state="yyy"/>
        <phase duration="5"  state="rrr"/>
    </tlLogic>
    <tlLogic id="198285861" type="actuated" programID="0" offset="0">
        <phase duration="82" state="GGGgGGGg" minDur="5" maxDur="50"/>
        <phase duration="3"  state="yyyyyyyy"/>
        <phase duration="5"  state="rrrrrrrr"/>
    </tlLogic>
    <tlLogic id="2010401871" type="actuated" programID="0" offset="0">
        <phase duration="90" state="GGG" minDur="15" maxDur="100"/>
    </tlLogic>
    <tlLogic id="2017065047" type="actuated" programID="0" offset="0">
        <phase duration="39" state="GGgrrGGg" minDur="13" maxDur="50"/>
        <phase duration="6"  state="yyyrryyy"/>
        <phase duration="39" state="rrrGGrrr" minDur="13" maxDur="50"/>
        <phase duration="6"  state="rrryyrrr"/>
    </tlLogic>
    <tlLogic id="2017065056" type="actuated" programID="0" offset="0">
        <phase duration="79" state="GGggGGGg" minDur="13" maxDur="50"/>
        <phase duration="6"  state="yyyyyyyy"/>
        <phase duration="5"  state="rrrrrrrr"/>
    </tlLogic>
    <tlLogic id="205331580" type="actuated" programID="0" offset="0">
        <phase duration="78" state="GGgGGGgg" minDur="5" maxDur="50"/>
        <phase duration="3"  state="yyyGGGgg"/>
        <phase duration="6"  state="rrrGGGGG" minDur="5" maxDur="50"/>
        <phase duration="3"  state="rrrGGGyy"/>
    </tlLogic>
    <tlLogic id="205331584" type="actuated" programID="0" offset="0">
        <phase duration="39" state="GgGrr" minDur="13" maxDur="50"/>
        <phase duration="6"  state="yyGrr"/>
        <phase duration="39" state="rrGGG" minDur="10" maxDur="50"/>
        <phase duration="6"  state="rrGyy"/>
    </tlLogic>
    <tlLogic id="205335874" type="actuated" programID="0" offset="0">
        <phase duration="39" state="GGGrrr" minDur="13" maxDur="50"/>
        <phase duration="6"  state="yyyrrr"/>
        <phase duration="39" state="rrrGGG" minDur="5" maxDur="50"/>
        <phase duration="6"  state="rrryyy"/>
    </tlLogic>
    <tlLogic id="205335875" type="actuated" programID="0" offset="0">
        <phase duration="39" state="GGGgrrrGg" minDur="13" maxDur="50"/>
        <phase duration="6"  state="yyyyrrrGy"/>
        <phase duration="39" state="rrrrGGgGr" minDur="10" maxDur="50"/>
        <phase duration="6"  state="rrrryyyGr"/>
    </tlLogic>
    <tlLogic id="205335876" type="actuated" programID="0" offset="0">
        <phase duration="39" state="rrrrGggGGg" minDur="13" maxDur="50"/>
        <phase duration="6"  state="rrrryyyyyy"/>
        <phase duration="39" state="GGGGrrrrrr" minDur="13" maxDur="50"/>
        <phase duration="6"  state="yyyyrrrrrr"/>
    </tlLogic>
    <tlLogic id="205335880" type="actuated" programID="0" offset="0">
        <phase duration="79" state="GGG" minDur="13" maxDur="50"/>
        <phase duration="6"  state="yyy"/>
        <phase duration="5"  state="rrr"/>
    </tlLogic>
    <tlLogic id="205335888" type="actuated" programID="0" offset="0">
        <phase duration="79" state="GGG" minDur="13" maxDur="50"/>
        <phase duration="6"  state="yyy"/>
        <phase duration="5"  state="rrr"/>
    </tlLogic>
    <tlLogic id="205335894" type="actuated" programID="0" offset="0">
        <phase duration="33" state="rrrrrGGGrrrrrrrGGrr" minDur="13" maxDur="50"/>
        <phase duration="6"  state="rrrrryyyrrrrrrryyrr"/>
        <phase duration="6"  state="rrrrrrrrGGrrrrrrrGG" minDur="13" maxDur="50"/>
        <phase duration="6"  state="rrrrrrrryyrrrrrrryy"/>
        <phase duration="33" state="GGGggrrrrrGGGggrrrr" minDur="13" maxDur="50"/>
        <phase duration="6"  state="yyyyyrrrrryyyyyrrrr"/>
    </tlLogic>
    <tlLogic id="205339047" type="actuated" programID="0" offset="0">
        <phase duration="42" state="GGgGrrrrr" minDur="5" maxDur="50"/>
        <phase duration="3"  state="yyyGrrrrr"/>
        <phase duration="42" state="rrrGGGGGG" minDur="5" maxDur="50"/>
        <phase duration="3"  state="rrrGyyyyy"/>
    </tlLogic>
    <tlLogic id="205339058" type="actuated" programID="0" offset="0">
        <phase duration="42" state="GGGGrrrrr" minDur="5" maxDur="50"/>
        <phase duration="3"  state="GGyyrrrrr"/>
        <phase duration="42" state="GGrrGGGGg" minDur="5" maxDur="50"/>
        <phase duration="3"  state="GGrryyyyy"/>
    </tlLogic>
    <tlLogic id="205341981" type="actuated" programID="0" offset="0">
        <phase duration="42" state="GGGrrrr" minDur="5" maxDur="50"/>
        <phase duration="3"  state="yyyrrrr"/>
        <phase duration="42" state="rrrGGGG" minDur="5" maxDur="50"/>
        <phase duration="3"  state="rrryyyy"/>
    </tlLogic>
    <tlLogic id="205488016" type="actuated" programID="0" offset="0">
        <phase duration="39" state="GGGGGrrrr" minDur="5" maxDur="50"/>
        <phase duration="6"  state="yyyyyrrrr"/>
        <phase duration="39" state="rrrrrGGGG" minDur="13" maxDur="50"/>
        <phase duration="6"  state="rrrrryyyy"/>
    </tlLogic>
    <tlLogic id="205488025" type="actuated" programID="0" offset="0">
        <phase duration="40" state="GGGGGrrr" minDur="5" maxDur="50"/>
        <phase duration="5"  state="yyyyyrrr"/>
        <phase duration="40" state="rrrrrGGG" minDur="10" maxDur="50"/>
        <phase duration="5"  state="rrrrryyy"/>
    </tlLogic>
    <tlLogic id="2059722600" type="actuated" programID="0" offset="0">
        <phase duration="40" state="GGgrrrGgg" minDur="10" maxDur="50"/>
        <phase duration="5"  state="yyyrrryyy"/>
        <phase duration="40" state="rrrGGGrrr" minDur="10" maxDur="50"/>
        <phase duration="5"  state="rrryyyrrr"/>
    </tlLogic>
    <tlLogic id="2059734839" type="actuated" programID="0" offset="0">
        <phase duration="79" state="GGgGGg" minDur="13" maxDur="50"/>
        <phase duration="6"  state="yyyyyy"/>
        <phase duration="5"  state="rrrrrr"/>
    </tlLogic>
    <tlLogic id="239937329" type="actuated" programID="0" offset="0">
        <phase duration="39" state="GGgrrGGg" minDur="13" maxDur="50"/>
        <phase duration="6"  state="yyyrryyy"/>
        <phase duration="39" state="rrrGGrrr" minDur="10" maxDur="50"/>
        <phase duration="6"  state="rrryyrrr"/>
    </tlLogic>
    <tlLogic id="244000093" type="actuated" programID="0" offset="0">
        <phase duration="33" state="rrrrGGGGggrrrrGGGG" minDur="5" maxDur="50"/>
        <phase duration="6"  state="rrrryyyyyyrrrryyyy"/>
        <phase duration="33" state="GGrrrrrrrrGGGgrrrr" minDur="13" maxDur="50"/>
        <phase duration="6"  state="yyrrrrrrrryyygrrrr"/>
        <phase duration="6"  state="rrGGrrrrrrrrrGrrrr" minDur="13" maxDur="50"/>
        <phase duration="6"  state="rryyrrrrrrrrryrrrr"/>
    </tlLogic>
    <tlLogic id="244017594" type="actuated" programID="0" offset="0">
        <phase duration="82" state="GGgggGG" minDur="5" maxDur="50"/>
        <phase duration="3"  state="yyyyyyy"/>
        <phase duration="5"  state="rrrrrrr"/>
    </tlLogic>
    <tlLogic id="2442515283" type="actuated" programID="0" offset="0">
        <phase duration="79" state="GgGg" minDur="13" maxDur="50"/>
        <phase duration="6"  state="yyyy"/>
        <phase duration="5"  state="rrrr"/>
    </tlLogic>
    <tlLogic id="2444389312" type="actuated" programID="0" offset="0">
        <phase duration="82" state="GGG" minDur="5" maxDur="50"/>
        <phase duration="3"  state="yyy"/>
        <phase duration="5"  state="rrr"/>
    </tlLogic>
    <tlLogic id="247365340" type="actuated" programID="0" offset="0">
        <phase duration="40" state="GrrGG" minDur="10" maxDur="50"/>
        <phase duration="5"  state="yrryy"/>
        <phase duration="40" state="rGGrr" minDur="10" maxDur="50"/>
        <phase duration="5"  state="ryyrr"/>
    </tlLogic>
    <tlLogic id="249803037" type="actuated" programID="0" offset="0">
        <phase duration="79" state="GGGGg" minDur="13" maxDur="50"/>
        <phase duration="6"  state="yyyyy"/>
        <phase duration="5"  state="rrrrr"/>
    </tlLogic>
    <tlLogic id="256182979" type="actuated" programID="0" offset="0">
        <phase duration="39" state="GgrrGGg" minDur="13" maxDur="50"/>
        <phase duration="6"  state="yyrryyy"/>
        <phase duration="39" state="rrGGrrr" minDur="5" maxDur="50"/>
        <phase duration="6"  state="rryyrrr"/>
    </tlLogic>
    <tlLogic id="256182984" type="actuated" programID="0" offset="0">
        <phase duration="79" state="GGGgGGgg" minDur="13" maxDur="50"/>
        <phase duration="6"  state="yyyyyyyy"/>
        <phase duration="5"  state="rrrrrrrr"/>
    </tlLogic>
    <tlLogic id="256183433" type="actuated" programID="0" offset="0">
        <phase duration="39" state="GgrrGGGg" minDur="13" maxDur="50"/>
        <phase duration="6"  state="yyrryyyy"/>
        <phase duration="39" state="rrGGrrrr" minDur="13" maxDur="50"/>
        <phase duration="6"  state="rryyrrrr"/>
    </tlLogic>
    <tlLogic id="2565196723" type="actuated" programID="0" offset="0">
        <phase duration="79" state="GGG" minDur="13" maxDur="50"/>
        <phase duration="6"  state="yyy"/>
        <phase duration="5"  state="rrr"/>
    </tlLogic>
    <tlLogic id="297892621" type="actuated" programID="0" offset="0">
        <phase duration="39" state="rrrGGGggrrrrrGGGgg" minDur="13" maxDur="50"/>
        <phase duration="6"  state="rrryyyyyrrrrryyyyy"/>
        <phase duration="39" state="GGgrrrrrGGGggrrrrr" minDur="13" maxDur="50"/>
        <phase duration="6"  state="yyyrrrrryyyyyrrrrr"/>
    </tlLogic>
    <tlLogic id="301768018" type="actuated" programID="0" offset="0">
        <phase duration="27" state="GGGrrrrrrrrr" minDur="5" maxDur="50"/>
        <phase duration="3"  state="yyyrrrrrrrrr"/>
        <phase duration="27" state="rrrGggrrrGGg" minDur="5" maxDur="50"/>
        <phase duration="3"  state="rrryyyrrrGyy"/>
        <phase duration="27" state="rrrrrrGGgGrr" minDur="5" maxDur="50"/>
        <phase duration="3"  state="rrrrrryyyyrr"/>
    </tlLogic>
    <tlLogic id="304499541" type="actuated" programID="0" offset="0">
        <phase duration="39" state="GGGgGGGggrrrr" minDur="13" maxDur="50"/>
        <phase duration="6"  state="Gyyyyyyyyrrrr"/>
        <phase duration="39" state="GrrrrrrrrGGGg" minDur="5" maxDur="50"/>
        <phase duration="6"  state="Grrrrrrrryyyy"/>
    </tlLogic>
    <tlLogic id="304501813" type="actuated" programID="0" offset="0">
        <phase duration="39" state="GGGGrrGGGGrrr" minDur="13" maxDur="50"/>
        <phase duration="6"  state="yyyyrryyyyrrr"/>
        <phase duration="39" state="rrrrGGrrrrGGg" minDur="13" maxDur="50"/>
        <phase duration="6"  state="rrrryyrrrryyy"/>
    </tlLogic>
    <tlLogic id="304501816" type="actuated" programID="0" offset="0">
        <phase duration="40" state="GGGgrrrGGGg" minDur="5" maxDur="50"/>
        <phase duration="5"  state="yyyyrrryyyy"/>
        <phase duration="40" state="rrrrGGGrrrr" minDur="10" maxDur="50"/>
        <phase duration="5"  state="rrrryyyrrrr"/>
    </tlLogic>
    <tlLogic id="306095693" type="actuated" programID="0" offset="0">
        <phase duration="39" state="GGggrrrrGGggrrrr" minDur="13" maxDur="50"/>
        <phase duration="6"  state="yyyyrrrryyyyrrrr"/>
        <phase duration="39" state="rrrrGGggrrrrGGgg" minDur="13" maxDur="50"/>
        <phase duration="6"  state="rrrryyyyrrrryyyy"/>
    </tlLogic>
    <tlLogic id="306097109" type="actuated" programID="0" offset="0">
        <phase duration="39" state="rrrrGGGggGGGgg" minDur="13" maxDur="50"/>
        <phase duration="6"  state="rrrrGyyyyyyyyy"/>
        <phase duration="39" state="GGGgGrrrrrrrrr" minDur="5" maxDur="50"/>
        <phase duration="6"  state="yyyyGrrrrrrrrr"/>
    </tlLogic>
    <tlLogic id="306100029" type="actuated" programID="0" offset="0">
        <phase duration="39" state="GGGGGrrrrr" minDur="13" maxDur="50"/>
        <phase duration="6"  state="GGyyyrrrrr"/>
        <phase duration="39" state="GGrrrGGGGg" minDur="13" maxDur="50"/>
        <phase duration="6"  state="GGrrryyyyy"/>
    </tlLogic>
    <tlLogic id="306100060" type="actuated" programID="0" offset="0">
        <phase duration="39" state="GGggrrrrGGggrrrr" minDur="13" maxDur="50"/>
        <phase duration="6"  state="yyyyrrrryyyyrrrr"/>
        <phase duration="39" state="rrrrGGggrrrrGGgg" minDur="10" maxDur="50"/>
        <phase duration="6"  state="rrrryyyyrrrryyyy"/>
    </tlLogic>
    <tlLogic id="306100786" type="actuated" programID="0" offset="0">
        <phase duration="39" state="rrrrGGGggrrrrGGGgg" minDur="13" maxDur="50"/>
        <phase duration="6"  state="rrrryyyyyrrrryyyyy"/>
        <phase duration="39" state="GGggrrrrrGGggrrrrr" minDur="13" maxDur="50"/>
        <phase duration="6"  state="yyyyrrrrryyyyrrrrr"/>
    </tlLogic>
    <tlLogic id="306100789" type="actuated" programID="0" offset="0">
        <phase duration="39" state="GGGgGGggrrr" minDur="13" maxDur="50"/>
        <phase duration="6"  state="Gyyyyyyyrrr"/>
        <phase duration="39" state="GrrrrrrrGGg" minDur="13" maxDur="50"/>
        <phase duration="6"  state="Grrrrrrryyy"/>
    </tlLogic>
    <tlLogic id="306100790" type="actuated" programID="0" offset="0">
        <phase duration="33" state="GGGrrrrrrrGGGGrrrrrrr" minDur="13" maxDur="50"/>
        <phase duration="6"  state="yyyrrrrrrryyyyrrrrrrr"/>
        <phase duration="6"  state="rrrGGrrrrrrrrrGGrrrrr" minDur="13" maxDur="50"/>
        <phase duration="6"  state="rrryyrrrrrrrrryyrrrrr"/>
        <phase duration="33" state="rrrrrGGGggrrrrrrGGGgg" minDur="13" maxDur="50"/>
        <phase duration="6"  state="rrrrryyyyyrrrrrryyyyy"/>
    </tlLogic>
    <tlLogic id="306103399" type="actuated" programID="0" offset="0">
        <phase duration="82" state="GGGGGG" minDur="5" maxDur="50"/>
        <phase duration="3"  state="yyyyyy"/>
        <phase duration="5"  state="rrrrrr"/>
    </tlLogic>
    <tlLogic id="306103411" type="actuated" programID="0" offset="0">
        <phase duration="82" state="GGGGGG" minDur="5" maxDur="50"/>
        <phase duration="3"  state="yyyyyy"/>
        <phase duration="5"  state="rrrrrr"/>
    </tlLogic>
    <tlLogic id="307725285" type="actuated" programID="0" offset="0">
        <phase duration="39" state="GGgGggrrr" minDur="13" maxDur="50"/>
        <phase duration="6"  state="Gyyyyyrrr"/>
        <phase duration="39" state="GrrrrrGGg" minDur="5" maxDur="50"/>
        <phase duration="6"  state="Grrrrryyy"/>
    </tlLogic>
    <tlLogic id="307802088" type="actuated" programID="0" offset="0">
        <phase duration="25" state="rGr" minDur="10" maxDur="50"/>
        <phase duration="5"  state="ryr"/>
        <phase duration="30" state="Grr" minDur="10" maxDur="50"/>
        <phase duration="25" state="Grg" minDur="5" maxDur="50"/>
        <phase duration="5"  state="yry"/>
    </tlLogic>
    <tlLogic id="307848476" type="actuated" programID="0" offset="0">
        <phase duration="42" state="rrrGGgGgg" minDur="5" maxDur="50"/>
        <phase duration="3"  state="rrrGyyyyy"/>
        <phase duration="42" state="GGgGrrrrr" minDur="5" maxDur="50"/>
        <phase duration="3"  state="yyyGrrrrr"/>
    </tlLogic>
    <tlLogic id="307860545" type="actuated" programID="0" offset="0">
        <phase duration="79" state="GGgGGG" minDur="13" maxDur="50"/>
        <phase duration="6"  state="yyyyyy"/>
        <phase duration="5"  state="rrrrrr"/>
    </tlLogic>
    <tlLogic id="307860549" type="actuated" programID="0" offset="0">
        <phase duration="27" state="rrrrGGGGgrrrrGGGrr" minDur="13" maxDur="50"/>
        <phase duration="6"  state="rrrryyyyyrrrrGGGrr"/>
        <phase duration="6"  state="rrrrrrrrrrrrrGGGGG" minDur="13" maxDur="50"/>
        <phase duration="6"  state="rrrrrrrrrrrrryyyyy"/>
        <phase duration="27" state="GGrrrrrrrGGrrrrrrr" minDur="10" maxDur="50"/>
        <phase duration="6"  state="yyrrrrrrryyrrrrrrr"/>
        <phase duration="6"  state="rrGGrrrrrrrGGrrrrr" minDur="10" maxDur="50"/>
        <phase duration="6"  state="rryyrrrrrrryyrrrrr"/>
    </tlLogic>
    <tlLogic id="308494192" type="actuated" programID="0" offset="0">
        <phase duration="79" state="GGgGGg" minDur="13" maxDur="50"/>
        <phase duration="6"  state="yyyyyy"/>
        <phase duration="5"  state="rrrrrr"/>
    </tlLogic>
    <tlLogic id="311092745" type="actuated" programID="0" offset="0">
        <phase duration="33" state="GGrrrrrGGGGg" minDur="13" maxDur="50"/>
        <phase duration="6"  state="GGrrrrryyyyy"/>
        <phase duration="6"  state="GGGGrrrrrrrr" minDur="13" maxDur="50"/>
        <phase duration="6"  state="yyyyrrrrrrrr"/>
        <phase duration="33" state="rrrrGGgGrrrr" minDur="10" maxDur="50"/>
        <phase duration="6"  state="rrrryyyGrrrr"/>
    </tlLogic>
    <tlLogic id="311422356" type="actuated" programID="0" offset="0">
        <phase duration="79" state="GG" minDur="13" maxDur="50"/>
        <phase duration="6"  state="yy"/>
        <phase duration="5"  state="rr"/>
    </tlLogic>
    <tlLogic id="311766282" type="actuated" programID="0" offset="0">
        <phase duration="39" state="GGGrr" minDur="13" maxDur="50"/>
        <phase duration="6"  state="Gyyrr"/>
        <phase duration="39" state="GrrGG" minDur="5" maxDur="50"/>
        <phase duration="6"  state="Grryy"/>
    </tlLogic>
    <tlLogic id="311766438" type="actuated" programID="0" offset="0">
        <phase duration="39" state="GGrrrrGGrrr" minDur="13" maxDur="50"/>
        <phase duration="6"  state="yyrrrryyrrr"/>
        <phase duration="39" state="rrGGGgrrGGG" minDur="5" maxDur="50"/>
        <phase duration="6"  state="rryyyyrryyy"/>
    </tlLogic>
    <tlLogic id="311766439" type="actuated" programID="0" offset="0">
        <phase duration="39" state="rrrGGGGrrrGGGG" minDur="5" maxDur="50"/>
        <phase duration="6"  state="rrryyyyrrryyyy"/>
        <phase duration="39" state="GGgrrrrGGggrrr" minDur="13" maxDur="50"/>
        <phase duration="6"  state="yyyrrrryyygrrr"/>
    </tlLogic>
    <tlLogic id="314301823" type="actuated" programID="0" offset="0">
        <phase duration="79" state="GGgGGg" minDur="13" maxDur="50"/>
        <phase duration="6"  state="yyyyyy"/>
        <phase duration="5"  state="rrrrrr"/>
    </tlLogic>
    <tlLogic id="3150419458" type="actuated" programID="0" offset="0">
        <phase duration="39" state="GGr" minDur="13" maxDur="50"/>
        <phase duration="6"  state="yyr"/>
        <phase duration="39" state="rrG" minDur="10" maxDur="50"/>
        <phase duration="6"  state="rry"/>
    </tlLogic>
    <tlLogic id="324815976" type="actuated" programID="0" offset="0">
        <phase duration="40" state="gG" minDur="10" maxDur="50"/>
        <phase duration="5"  state="yG"/>
        <phase duration="45" state="rG" minDur="10" maxDur="50"/>
    </tlLogic>
    <tlLogic id="324817547" type="actuated" programID="0" offset="0">
        <phase duration="39" state="GGGrrrGGgg" minDur="13" maxDur="50"/>
        <phase duration="6"  state="yyyrrryyyy"/>
        <phase duration="39" state="rrrGGGrrrr" minDur="10" maxDur="50"/>
        <phase duration="6"  state="rrryyyrrrr"/>
    </tlLogic>
    <tlLogic id="325686885" type="actuated" programID="0" offset="0">
        <phase duration="39" state="GGGrrr" minDur="13" maxDur="50"/>
        <phase duration="6"  state="yyyrrr"/>
        <phase duration="39" state="rrrGGG" minDur="13" maxDur="50"/>
        <phase duration="6"  state="rrryyy"/>
    </tlLogic>
    <tlLogic id="332586335" type="actuated" programID="0" offset="0">
        <phase duration="39" state="rrrGGGggrrrrrGGGgg" minDur="13" maxDur="50"/>
        <phase duration="6"  state="rrryyyyyrrrrryyyyy"/>
        <phase duration="39" state="GGGrrrrrGGGggrrrrr" minDur="13" maxDur="50"/>
        <phase duration="6"  state="yyyrrrrryyyyyrrrrr"/>
    </tlLogic>
    <tlLogic id="332587985" type="actuated" programID="0" offset="0">
        <phase duration="39" state="GGGrrrrGGG" minDur="13" maxDur="50"/>
        <phase duration="6"  state="yyyrrrrGyy"/>
        <phase duration="39" state="rrrGGGgGrr" minDur="5" maxDur="50"/>
        <phase duration="6"  state="rrryyyyGrr"/>
    </tlLogic>
    <tlLogic id="332594235" type="actuated" programID="0" offset="0">
        <phase duration="82" state="GGggGGGg" minDur="5" maxDur="50"/>
        <phase duration="3"  state="yyyyyyyy"/>
        <phase duration="5"  state="rrrrrrrr"/>
    </tlLogic>
    <tlLogic id="333177134" type="actuated" programID="0" offset="0">
        <phase duration="39" state="GGGgrrrrGGGGg" minDur="13" maxDur="50"/>
        <phase duration="6"  state="yyyyrrrrGyyyy"/>
        <phase duration="39" state="rrrrGGGgGrrrr" minDur="5" maxDur="50"/>
        <phase duration="6"  state="rrrryyyyGrrrr"/>
    </tlLogic>
    <tlLogic id="333193577" type="actuated" programID="0" offset="0">
        <phase duration="82" state="GGGG" minDur="5" maxDur="50"/>
        <phase duration="3"  state="yyyy"/>
        <phase duration="5"  state="rrrr"/>
    </tlLogic>
    <tlLogic id="3529109538" type="actuated" programID="0" offset="0">
        <phase duration="39" state="GGgrrrGGGg" minDur="13" maxDur="50"/>
        <phase duration="6"  state="yyyrrryyyy"/>
        <phase duration="39" state="rrrGGGrrrr" minDur="10" maxDur="50"/>
        <phase duration="6"  state="rrryyyrrrr"/>
    </tlLogic>
    <tlLogic id="3535117847" type="actuated" programID="0" offset="0">
        <phase duration="40" state="GGggrrrrGGGg" minDur="10" maxDur="50"/>
        <phase duration="5"  state="yyyyrrrrGyyy"/>
        <phase duration="40" state="rrrrGGGgGrrr" minDur="10" maxDur="50"/>
        <phase duration="5"  state="rrrryyyyGrrr"/>
    </tlLogic>
    <tlLogic id="365753068" type="actuated" programID="0" offset="0">
        <phase duration="45" state="rG" minDur="5" maxDur="50"/>
        <phase duration="42" state="gG" minDur="5" maxDur="50"/>
        <phase duration="3"  state="yG"/>
    </tlLogic>
    <tlLogic id="3708293998" type="actuated" programID="0" offset="0">
        <phase duration="79" state="GG" minDur="13" maxDur="50"/>
        <phase duration="6"  state="yy"/>
        <phase duration="5"  state="rr"/>
    </tlLogic>
    <tlLogic id="3798286952" type="actuated" programID="0" offset="0">
        <phase duration="82" state="GGgGGgg" minDur="5" maxDur="50"/>
        <phase duration="3"  state="yyyyyyy"/>
        <phase duration="5"  state="rrrrrrr"/>
    </tlLogic>
    <tlLogic id="405279889" type="actuated" programID="0" offset="0">
        <phase duration="42" state="GGGrrrGGGG" minDur="5" maxDur="50"/>
        <phase duration="3"  state="yyyrrrGyyy"/>
        <phase duration="42" state="rrrGGGGrrr" minDur="5" maxDur="50"/>
        <phase duration="3"  state="rrryyyGrrr"/>
    </tlLogic>
    <tlLogic id="405280216" type="actuated" programID="0" offset="0">
        <phase duration="42" state="GGgrrrGGGg" minDur="5" maxDur="50"/>
        <phase duration="3"  state="yyyrrrGyyy"/>
        <phase duration="42" state="rrrGGgGrrr" minDur="5" maxDur="50"/>
        <phase duration="3"  state="rrryyyGrrr"/>
    </tlLogic>
    <tlLogic id="405475419" type="actuated" programID="0" offset="0">
        <phase duration="40" state="rrrGGgGgg" minDur="5" maxDur="50"/>
        <phase duration="5"  state="rrrGyyyyy"/>
        <phase duration="40" state="GGgGrrrrr" minDur="10" maxDur="50"/>
        <phase duration="5"  state="yyyGrrrrr"/>
    </tlLogic>
    <tlLogic id="405475447" type="actuated" programID="0" offset="0">
        <phase duration="33" state="rrrrrGGGGrrrrrrrGGGGrr" minDur="13" maxDur="50"/>
        <phase duration="6"  state="rrrrryyyyrrrrrrryyyyrr"/>
        <phase duration="6"  state="rrrrrrrrrGGrrrrrrrrrGG" minDur="13" maxDur="50"/>
        <phase duration="6"  state="rrrrrrrrryyrrrrrrrrryy"/>
        <phase duration="33" state="GGgggrrrrrrGGGggrrrrrr" minDur="10" maxDur="50"/>
        <phase duration="6"  state="yyyyyrrrrrryyyyyrrrrrr"/>
    </tlLogic>
    <tlLogic id="405475503" type="actuated" programID="0" offset="0">
        <phase duration="40" state="GggrrrGGg" minDur="10" maxDur="50"/>
        <phase duration="5"  state="yyyrrrGyy"/>
        <phase duration="40" state="rrrGGgGrr" minDur="10" maxDur="50"/>
        <phase duration="5"  state="rrryyyGrr"/>
    </tlLogic>
    <tlLogic id="405611471" type="actuated" programID="0" offset="0">
        <phase duration="80" state="GGGG" minDur="10" maxDur="50"/>
        <phase duration="5"  state="yyyy"/>
        <phase duration="5"  state="rrrr"/>
    </tlLogic>
    <tlLogic id="405611550" type="actuated" programID="0" offset="0">
        <phase duration="82" state="GGG" minDur="5" maxDur="50"/>
        <phase duration="3"  state="yyy"/>
        <phase duration="5"  state="rrr"/>
    </tlLogic>
    <tlLogic id="418390981" type="actuated" programID="0" offset="0">
        <phase duration="39" state="GGgrrrGGg" minDur="13" maxDur="50"/>
        <phase duration="6"  state="yyyrrrGyy"/>
        <phase duration="39" state="rrrGGgGrr" minDur="5" maxDur="50"/>
        <phase duration="6"  state="rrryyyGrr"/>
    </tlLogic>
    <tlLogic id="422086910" type="actuated" programID="0" offset="0">
        <phase duration="42" state="GggrrrGGg" minDur="5" maxDur="50"/>
        <phase duration="3"  state="yyyrrrGyy"/>
        <phase duration="42" state="rrrGGgGrr" minDur="5" maxDur="50"/>
        <phase duration="3"  state="rrryyyGrr"/>
    </tlLogic>
    <tlLogic id="422989215" type="actuated" programID="0" offset="0">
        <phase duration="42" state="GGgrrrGgg" minDur="5" maxDur="50"/>
        <phase duration="3"  state="yyyrrryyy"/>
        <phase duration="42" state="rrrGGGrrr" minDur="5" maxDur="50"/>
        <phase duration="3"  state="rrryyyrrr"/>
    </tlLogic>
    <tlLogic id="422989250" type="actuated" programID="0" offset="0">
        <phase duration="82" state="GggGGg" minDur="5" maxDur="50"/>
        <phase duration="3"  state="yyyyyy"/>
        <phase duration="5"  state="rrrrrr"/>
    </tlLogic>
    <tlLogic id="423257690" type="actuated" programID="0" offset="0">
        <phase duration="27" state="rrrGGGrrr" minDur="5" maxDur="50"/>
        <phase duration="3"  state="rrryyyrrr"/>
        <phase duration="27" state="GrrrrrGGg" minDur="5" maxDur="50"/>
        <phase duration="3"  state="Grrrrryyy"/>
        <phase duration="27" state="GGgGrrrrr" minDur="5" maxDur="50"/>
        <phase duration="3"  state="yyyGrrrrr"/>
    </tlLogic>
    <tlLogic id="423257698" type="actuated" programID="0" offset="0">
        <phase duration="40" state="GggrrrGGg" minDur="10" maxDur="50"/>
        <phase duration="5"  state="yyyrrrGyy"/>
        <phase duration="40" state="rrrGGgGrr" minDur="5" maxDur="50"/>