<?xml version="1.0" encoding="UTF-8"?>

<!-- generated on 2025-09-19 13:24:53 by Eclipse SUMO netconvert Version 1.24.0
<netconvertConfiguration xmlns:xsi="http://www.w3.org/2001/XMLSchema-instance" xsi:noNamespaceSchemaLocation="http://sumo.dlr.de/xsd/netconvertConfiguration.xsd">

    <input>
        <sumo-net-file value="osm.net.xml"/>
    </input>

    <output>
        <plain-output-prefix value="network"/>
        <output.street-names value="true"/>
    </output>

    <processing>
        <geometry.min-radius.fix.railways value="false"/>
        <geometry.avoid-overlap value="false"/>
        <geometry.max-grade.fix value="false"/>
        <offset.disable-normalization value="true"/>
        <lefthand value="0"/>
    </processing>

    <junctions>
        <no-turnarounds value="true"/>
        <junctions.corner-detail value="5"/>
        <junctions.limit-turn-speed value="5.50"/>
        <rectangular-lane-cut value="0"/>
    </junctions>

    <pedestrian>
        <walkingareas value="0"/>
    </pedestrian>

</netconvertConfiguration>
-->

<connections version="1.20" xmlns:xsi="http://www.w3.org/2001/XMLSchema-instance" xsi:noNamespaceSchemaLocation="http://sumo.dlr.de/xsd/connections_file.xsd">
    <connection from="-1000927079" to="1370977118" fromLane="0" toLane="0"/>

    <connection from="-1019254303" to="69856380" fromLane="0" toLane="0"/>
    <connection from="-1019254303" to="1019254303" fromLane="0" toLane="1"/>

    <connection from="-1019254304" to="1019254307" fromLane="0" toLane="0"/>
    <connection from="-1019254304" to="1019254304" fromLane="0" toLane="0"/>

    <connection from="-1019458868" to="1019458868" fromLane="0" toLane="0"/>

    <connection from="-1044163467#1" to="-30183813#1" fromLane="0" toLane="0"/>
    <connection from="-1044163467#1" to="-447598476" fromLane="0" toLane="0"/>
    <connection from="-1044163467#1" to="-447598476" fromLane="1" toLane="1"/>
    <connection from="-1044163467#1" to="892407187" fromLane="1" toLane="1"/>

    <connection from="-1056895529#0" to="-183454727#4" fromLane="0" toLane="0"/>
    <connection from="-1056895529#0" to="-183454727#4" fromLane="1" toLane="1"/>

    <connection from="-1056895529#1" to="-1056895529#0" fromLane="0" toLane="0"/>
    <connection from="-1056895529#1" to="-1056895529#0" fromLane="1" toLane="1"/>

    <connection from="-1057376886#1" to="1057376886#0" fromLane="0" toLane="0"/>

    <connection from="-1057719410#0" to="-766163866" fromLane="0" toLane="0"/>
    <connection from="-1057719410#0" to="330962458" fromLane="0" toLane="0"/>

    <connection from="-1086372857#1" to="28035821" fromLane="0" toLane="0"/>
    <connection from="-1086372857#1" to="-61912607" fromLane="0" toLane="0"/>
    <connection from="-1086372857#1" to="-61912607" fromLane="1" toLane="1"/>
    <connection from="-1086372857#1" to="1086372857#0" fromLane="1" toLane="1"/>

    <connection from="-1087973027#1" to="-313014284#4" fromLane="0" toLane="0"/>
    <connection from="-1087973027#1" to="-313014284#4" fromLane="1" toLane="1"/>

    <connection from="-1105850727" to="-403459527" fromLane="0" toLane="0"/>
    <connection from="-1105850727" to="-403459527" fromLane="1" toLane="1"/>
    <connection from="-1105850727" to="-403459527" fromLane="2" toLane="2"/>
    <connection from="-1105850727" to="1105850727" fromLane="2" toLane="2"/>

    <connection from="-1105853442" to="73241960#0" fromLane="0" toLane="0"/>
    <connection from="-1105853442" to="-195571137" fromLane="0" toLane="0"/>
    <connection from="-1105853442" to="-195571137" fromLane="1" toLane="1"/>
    <connection from="-1105853442" to="-195571137" fromLane="2" toLane="2"/>
    <connection from="-1105853442" to="871584215" fromLane="2" toLane="1"/>
    <connection from="-1105853442" to="639334643#0" fromLane="2" toLane="2"/>

    <connection from="-1121908324#1" to="53827960" fromLane="0" toLane="0"/>
    <connection from="-1121908324#1" to="49666438" fromLane="0" toLane="0"/>
    <connection from="-1121908324#1" to="67162267#0" fromLane="0" toLane="0"/>
    <connection from="-1121908324#1" to="-67162264#5" fromLane="0" toLane="1"/>
    <connection from="-1121908324#1" to="1121908323#0" fromLane="0" toLane="0"/>

    <connection from="-1121908324#5" to="-1121908324#1" fromLane="0" toLane="0"/>
    <connection from="-1121908324#5" to="27879699#0" fromLane="0" toLane="0"/>
    <connection from="-1121908324#5" to="1121908324#2" fromLane="0" toLane="0"/>

    <connection from="-112714894" to="375766981#0" fromLane="0" toLane="0"/>
    <connection from="-112714894" to="23135869" fromLane="0" toLane="0"/>

    <connection from="-1137958420" to="-1137958437" fromLane="0" toLane="0"/>
    <connection from="-1137958420" to="-1137958437" fromLane="1" toLane="1"/>

    <connection from="-1137958425" to="-1137958420" fromLane="0" toLane="0"/>
    <connection from="-1137958425" to="-1137958420" fromLane="1" toLane="1"/>

    <connection from="-1137958437" to="285531481" fromLane="0" toLane="0"/>
    <connection from="-1137958437" to="285531481" fromLane="1" toLane="1"/>
    <connection from="-1137958437" to="285531482" fromLane="1" toLane="1"/>

    <connection from="-1138018269" to="54725699#0" fromLane="0" toLane="0"/>
    <connection from="-1138018269" to="-700944781#2" fromLane="0" toLane="0"/>

    <connection from="-113880132" to="113880131#0" fromLane="0" toLane="0"/>

    <connection from="-113880679#0" to="222105713" fromLane="0" toLane="0"/>
    <connection from="-113880679#0" to="28354664#1" fromLane="0" toLane="0"/>
    <connection from="-113880679#0" to="28354664#1" fromLane="1" toLane="1"/>

    <connection from="-113880679#1" to="-113880679#0" fromLane="0" toLane="0"/>
    <connection from="-113880679#1" to="-113880679#0" fromLane="1" toLane="1"/>
    <connection from="-113880679#1" to="113880679#1" fromLane="1" toLane="1"/>

    <connection from="-113880679#2" to="-113880679#1" fromLane="0" toLane="0"/>
    <connection from="-113880679#2" to="-113880679#1" fromLane="1" toLane="1"/>
    <connection from="-113880679#2" to="113880679#2" fromLane="1" toLane="1"/>

    <connection from="-1156001077" to="-1156001078" fromLane="0" toLane="0"/>
    <connection from="-1156001077" to="-1156001078" fromLane="1" toLane="1"/>
    <connection from="-1156001077" to="-45744226" fromLane="1" toLane="0"/>
    <connection from="-1156001077" to="1156001077" fromLane="1" toLane="1"/>

    <connection from="-1156001078" to="45744236" fromLane="0" toLane="0"/>
    <connection from="-1156001078" to="45744236" fromLane="1" toLane="1"/>

    <connection from="-1160122274" to="238580264#0" fromLane="0" toLane="0"/>
    <connection from="-1160122274" to="238580264#0" fromLane="1" toLane="1"/>
    <connection from="-1160122274" to="238580263" fromLane="2" toLane="2"/>

    <connection from="-1160125533" to="-1418049070" fromLane="0" toLane="0"/>
    <connection from="-1160125533" to="-1418049070" fromLane="1" toLane="1"/>
    <connection from="-1160125533" to="-1418049070" fromLane="2" toLane="2"/>
    <connection from="-1160125533" to="-1418049070" fromLane="2" toLane="3"/>

    <connection from="-117107052" to="-186526645" fromLane="0" toLane="0"/>

    <connection from="-122193817" to="-334892162#3" fromLane="0" toLane="0"/>
    <connection from="-122193817" to="59529524#0" fromLane="0" toLane="0"/>
    <connection from="-122193817" to="59529524#0" fromLane="0" toLane="1"/>
    <connection from="-122193817" to="904300889#0" fromLane="0" toLane="1"/>
    <connection from="-122193817" to="122193817" fromLane="0" toLane="0"/>

    <connection from="-1241770981" to="1241770980" fromLane="0" toLane="0"/>
    <connection from="-1241770981" to="97887765#0" fromLane="0" toLane="0"/>
    <connection from="-1241770981" to="97887765#0" fromLane="1" toLane="1"/>
    <connection from="-1241770981" to="1241770981" fromLane="1" toLane="1"/>

    <connection from="-124717943#1" to="121712970" fromLane="0" toLane="0"/>
    <connection from="-124717943#1" to="121712970" fromLane="0" toLane="1"/>

    <connection from="-1298616762" to="-28604425#1" fromLane="0" toLane="0"/>
    <connection from="-1298616762" to="1298616760" fromLane="0" toLane="0"/>

    <connection from="-1303420787#1" to="-1303420789#3" fromLane="0" toLane="0"/>
    <connection from="-1303420787#1" to="-1303420789#3" fromLane="1" toLane="1"/>

    <connection from="-1303420789#3" to="-370316236#3" fromLane="0" toLane="0"/>
    <connection from="-1303420789#3" to="-370316236#3" fromLane="1" toLane="1"/>

    <connection from="-132203511" to="-423007011#1" fromLane="0" toLane="0"/>
    <connection from="-132203511" to="446863477" fromLane="0" toLane="0"/>

    <connection from="-1323409157#1" to="28089585" fromLane="0" toLane="0"/>
    <connection from="-1323409157#1" to="28089585" fromLane="1" toLane="1"/>
    <connection from="-1323409157#1" to="1323409157#0" fromLane="2" toLane="2"/>

    <connection from="-1342183270" to="638715674#1" fromLane="0" toLane="0" visibility="9.00"/>
    <connection from="-1342183270" to="638715674#1" fromLane="1" toLane="1" visibility="9.00"/>

    <connection from="-1342183271#0" to="-1342183271#1" fromLane="0" toLane="0"/>
    <connection from="-1342183271#0" to="-1342183270" fromLane="0" toLane="0"/>
    <connection from="-1342183271#0" to="-1342183270" fromLane="1" toLane="1"/>
    <connection from="-1342183271#0" to="1342183271#0" fromLane="1" toLane="1"/>

    <connection from="-1342183271#1" to="-1342183271#0" fromLane="0" toLane="0"/>
    <connection from="-1342183271#1" to="-1342183271#0" fromLane="1" toLane="1"/>

    <connection from="-135516567" to="54617143#0" fromLane="0" toLane="0"/>
    <connection from="-135516567" to="-332101606#1" fromLane="0" toLane="0"/>
    <connection from="-135516567" to="-332101606#1" fromLane="1" toLane="1"/>
    <connection from="-135516567" to="-332101606#1" fromLane="2" toLane="2"/>

    <connection from="-135737407" to="135737406" fromLane="0" toLane="0"/>
    <connection from="-135737407" to="135737406" fromLane="0" toLane="1"/>
    <connection from="-135737407" to="135737406" fromLane="0" toLane="2"/>

    <connection from="-1368388384" to="-79409355" fromLane="0" toLane="0"/>
    <connection from="-1368388384" to="-79409355" fromLane="1" toLane="1"/>
    <connection from="-1368388384" to="-79409355" fromLane="2" toLane="2"/>

    <connection from="-1368388731#1" to="-1368388384" fromLane="0" toLane="0"/>
    <connection from="-1368388731#1" to="-1368388384" fromLane="1" toLane="1"/>
    <connection from="-1368388731#1" to="-1368388384" fromLane="2" toLane="2"/>

    <connection from="-1368388731#2" to="-1368388731#1" fromLane="0" toLane="0"/>
    <connection from="-1368388731#2" to="-1368388731#1" fromLane="1" toLane="1"/>
    <connection from="-1368388731#2" to="-1368388731#1" fromLane="2" toLane="2"/>
    <connection from="-1368388731#2" to="1368388731#2" fromLane="2" toLane="2"/>

    <connection from="-1368691157#4" to="72880898#0" fromLane="0" toLane="0"/>
    <connection from="-1368691157#4" to="75110954#0" fromLane="0" toLane="1"/>
    <connection from="-1368691157#4" to="30186740#0" fromLane="0" toLane="0"/>

    <connection from="-1370956307#2" to="1370956307#0" fromLane="0" toLane="0"/>

    <connection from="-1370956307#3" to="-1370956307#2" fromLane="0" toLane="0"/>
    <connection from="-1370956307#3" to="60045952#0" fromLane="0" toLane="1"/>
    <connection from="-1370956307#3" to="1370956307#3" fromLane="0" toLane="2"/>

    <connection from="-1372160681#2" to="208421649#0" fromLane="0" toLane="1"/>
    <connection from="-1372160681#2" to="208421649#0" fromLane="0" toLane="2"/>
    <connection from="-1372160681#2" to="1372160681#0" fromLane="0" toLane="2"/>

    <connection from="-1372216572" to="1372216572" fromLane="0" toLane="0"/>

    <connection from="-1372216573#3" to="-97887765#2" fromLane="0" toLane="0"/>
    <connection from="-1372216573#3" to="-97887765#2" fromLane="1" toLane="1"/>
    <connection from="-1372216573#3" to="1372216573#0" fromLane="1" toLane="1"/>

    <connection from="-137265179" to="137265084" fromLane="0" toLane="0"/>
    <connection from="-137265179" to="137265084" fromLane="0" toLane="1"/>
    <connection from="-137265179" to="132760401" fromLane="0" toLane="0"/>
    <connection from="-137265179" to="132760401" fromLane="1" toLane="1"/>
    <connection from="-137265179" to="137265179" fromLane="2" toLane="2"/>

    <connection from="-137305234" to="-55441144" fromLane="0" toLane="0"/>

    <connection from="-1374303295" to="-132203511" fromLane="0" toLane="0"/>
    <connection from="-1374303295" to="1374303295" fromLane="0" toLane="0"/>

    <connection from="-1374303298" to="1374303297" fromLane="0" toLane="0"/>
    <connection from="-1374303298" to="-1374303295" fromLane="0" toLane="0"/>
    <connection from="-1374303298" to="1374303298" fromLane="0" toLane="0"/>

    <connection from="-1374303304" to="283642574" fromLane="0" toLane="0"/>
    <connection from="-1374303304" to="-283642560" fromLane="0" toLane="0"/>
    <connection from="-1374303304" to="283642570" fromLane="1" toLane="1"/>

    <connection from="-1376127094" to="804704122" fromLane="0" toLane="0"/>
    <connection from="-1376127094" to="1376127094" fromLane="0" toLane="0"/>

    <connection from="-1376669697" to="1376669695" fromLane="0" toLane="0"/>

    <connection from="-1382373141#1" to="1382373141#0" fromLane="0" toLane="0"/>

    <connection from="-1418049070" to="127353237#0" fromLane="0" toLane="0"/>
    <connection from="-1418049070" to="-639625555" fromLane="0" toLane="0"/>
    <connection from="-1418049070" to="-639625555" fromLane="1" toLane="1"/>
    <connection from="-1418049070" to="-639625555" fromLane="2" toLane="2"/>
    <connection from="-1418049070" to="1418049070" fromLane="3" toLane="2"/>

    <connection from="-1420150928#4" to="1420150928#0" fromLane="0" toLane="0"/>

    <connection from="-1423283012" to="1429231584" fromLane="0" toLane="1"/>
    <connection from="-1423283012" to="1429231584" fromLane="0" toLane="2"/>
    <connection from="-1423283012" to="1423283012" fromLane="0" toLane="2"/>

    <connection from="-142501835#1" to="-36148071#1" fromLane="0" toLane="0"/>
    <connection from="-142501835#1" to="-334892178#1" fromLane="0" toLane="0"/>
    <connection from="-142501835#1" to="-334892178#1" fromLane="1" toLane="1"/>

    <connection from="-142501835#5" to="-142501835#1" fromLane="0" toLane="0"/>
    <connection from="-142501835#5" to="-142501835#1" fromLane="1" toLane="1"/>

    <connection from="-142502375#2" to="-313014281#1" fromLane="0" toLane="0"/>
    <connection from="-142502375#2" to="36148071#0" fromLane="0" toLane="0"/>
    <connection from="-142502375#2" to="142502375#0" fromLane="0" toLane="0"/>

    <connection from="-146272921" to="36245143" fromLane="0" toLane="0"/>

    <connection from="-173076714#2" to="28089431#0" fromLane="0" toLane="0"/>
    <connection from="-173076714#2" to="173076714#0" fromLane="1" toLane="2"/>

    <connection from="-180567436" to="58800417" fromLane="0" toLane="0"/>

    <connection from="-180567439" to="58800419" fromLane="0" toLane="0"/>
    <connection from="-180567439" to="180567439" fromLane="0" toLane="0"/>

    <connection from="-182183037#1" to="-448768998#1" fromLane="0" toLane="0"/>
    <connection from="-182183037#1" to="-239077121#3" fromLane="0" toLane="0"/>
    <connection from="-182183037#1" to="-239077121#3" fromLane="1" toLane="1"/>
    <connection from="-182183037#1" to="260077617#0" fromLane="1" toLane="0"/>

    <connection from="-183454727#4" to="183454732" fromLane="0" toLane="0"/>
    <connection from="-183454727#4" to="183454732" fromLane="1" toLane="1"/>

    <connection from="-183975086" to="-1137958425" fromLane="0" toLane="1"/>

    <connection from="-184075404" to="184075404" fromLane="0" toLane="0"/>

    <connection from="-186485142#1" to="-117107052" fromLane="0" toLane="0"/>
    <connection from="-186485142#1" to="186485142#0" fromLane="0" toLane="0"/>

    <connection from="-186485143#1" to="58404359" fromLane="0" toLane="0"/>
    <connection from="-186485143#1" to="-186485142#1" fromLane="0" toLane="0"/>
    <connection from="-186485143#1" to="186485143#0" fromLane="0" toLane="0"/>

    <connection from="-186485149" to="-58404359" fromLane="0" toLane="0"/>

    <connection from="-186526645" to="-186526646#3" fromLane="0" toLane="0"/>
    <connection from="-186526645" to="60045916" fromLane="0" toLane="0"/>
    <connection from="-186526645" to="186526645" fromLane="0" toLane="0"/>

    <connection from="-186526646#3" to="-34760671#3" fromLane="0" toLane="0"/>
    <connection from="-186526646#3" to="60045936#0" fromLane="0" toLane="0"/>
    <connection from="-186526646#3" to="186526646#0" fromLane="0" toLane="0"/>

    <connection from="-190063815#2" to="-28037600#1" fromLane="0" toLane="0"/>
    <connection from="-190063815#2" to="-313014286#1" fromLane="0" toLane="0"/>
    <connection from="-190063815#2" to="1382373139#0" fromLane="0" toLane="1"/>
    <connection from="-190063815#2" to="-1382373141#1" fromLane="0" toLane="0"/>
    <connection from="-190063815#2" to="190063815#0" fromLane="0" toLane="0"/>

    <connection from="-190111970#3" to="73037066" fromLane="0" toLane="0"/>
    <connection from="-190111970#3" to="190111970#0" fromLane="0" toLane="0"/>

    <connection from="-190113001" to="-494999660" fromLane="0" toLane="0"/>
    <connection from="-190113001" to="-494999660" fromLane="0" toLane="1"/>

    <connection from="-195567980" to="195567979#0" fromLane="0" toLane="0"/>
    <connection from="-195567980" to="195567979#0" fromLane="1" toLane="1"/>

    <connection from="-195571137" to="422036397" fromLane="0" toLane="0"/>
    <connection from="-195571137" to="-639334623" fromLane="1" toLane="0"/>
    <connection from="-195571137" to="195571137" fromLane="2" toLane="2"/>

    <connection from="-19747258" to="780953379" fromLane="0" toLane="0"/>
    <connection from="-19747258" to="780953379" fromLane="1" toLane="1"/>

    <connection from="-19747779" to="29110031" fromLane="0" toLane="0"/>
    <connection from="-19747779" to="29110031" fromLane="1" toLane="1"/>
    <connection from="-19747779" to="19747779" fromLane="1" toLane="1"/>

    <connection from="-19747856" to="-19747779" fromLane="0" toLane="0"/>
    <connection from="-19747856" to="-19747779" fromLane="1" toLane="1"/>

    <connection from="-19747865" to="-19747856" fromLane="0" toLane="0"/>
    <connection from="-19747865" to="-19747856" fromLane="1" toLane="1"/>

    <connection from="-197857277#1" to="-395554565" fromLane="0" toLane="0"/>
    <connection from="-197857277#1" to="-395554565" fromLane="1" toLane="1"/>

    <connection from="-207283319" to="-339756997" fromLane="0" toLane="0"/>
    <connection from="-207283319" to="-36740360" fromLane="0" toLane="0"/>
    <connection from="-207283319" to="-36740360" fromLane="1" toLane="1"/>
    <connection from="-207283319" to="207283319" fromLane="1" toLane="1"/>

    <connection from="-207307419#1" to="50001920#1" fromLane="0" toLane="0"/>
    <connection from="-207307419#1" to="892407214" fromLane="0" toLane="0"/>
    <connection from="-207307419#1" to="892407214" fromLane="0" toLane="1"/>
    <connection from="-207307419#1" to="892407214" fromLane="0" toLane="2"/>
    <connection from="-207307419#1" to="31321098#0" fromLane="0" toLane="1"/>

    <connection from="-208421637#3" to="-1423283012" fromLane="0" toLane="0"/>
    <connection from="-208421637#3" to="213559804" fromLane="0" toLane="0"/>
    <connection from="-208421637#3" to="208421637#0" fromLane="0" toLane="2"/>

    <connection from="-208421649#4" to="1372160681#0" fromLane="0" toLane="0"/>
    <connection from="-208421649#4" to="1372160681#0" fromLane="1" toLane="1"/>
    <connection from="-208421649#4" to="1372160681#0" fromLane="2" toLane="2"/>
    <connection from="-208421649#4" to="208421649#0" fromLane="2" toLane="2"/>

    <connection from="-21766574" to="235487949" fromLane="0" toLane="0"/>

    <connection from="-222105714" to="-28354664#1" fromLane="0" toLane="0"/>
    <connection from="-222105714" to="-28354664#1" fromLane="1" toLane="1"/>

    <connection from="-22295868" to="717140992" fromLane="0" toLane="0"/>
    <connection from="-22295868" to="22295868" fromLane="0" toLane="0"/>

    <connection from="-224779526#2" to="-253802126" fromLane="0" toLane="0"/>
    <connection from="-224779526#2" to="-253802126" fromLane="1" toLane="1"/>

    <connection from="-225998887#2" to="239209580#0" fromLane="0" toLane="0"/>
    <connection from="-225998887#2" to="239209579" fromLane="0" toLane="0"/>

    <connection from="-22742149#1" to="131703218" fromLane="0" toLane="0"/>
    <connection from="-22742149#1" to="-190113001" fromLane="0" toLane="0"/>

    <connection from="-23126106" to="183975103" fromLane="0" toLane="0"/>

    <connection from="-231910375" to="-891875433" fromLane="0" toLane="0"/>
    <connection from="-231910375" to="239205808" fromLane="0" toLane="0"/>
    <connection from="-231910375" to="231910375" fromLane="0" toLane="0"/>

    <connection from="-235487949" to="21766574" fromLane="0" toLane="0"/>

    <connection from="-235487951" to="235487951" fromLane="0" toLane="0"/>

    <connection from="-236186035" to="-894268680" fromLane="0" toLane="0" keepClear="0"/>
    <connection from="-236186035" to="-894268680" fromLane="0" toLane="1" keepClear="0"/>
    <connection from="-236186035" to="48785155" fromLane="0" toLane="0"/>

    <connection from="-236912684#2" to="-137265179" fromLane="0" toLane="0"/>
    <connection from="-236912684#2" to="-137265179" fromLane="1" toLane="1"/>
    <connection from="-236912684#2" to="-137265179" fromLane="2" toLane="2"/>
    <connection from="-236912684#2" to="236912684#0" fromLane="2" toLane="2"/>

    <connection from="-236912686" to="-236912684#2" fromLane="0" toLane="0"/>
    <connection from="-236912686" to="-236912684#2" fromLane="1" toLane="1"/>
    <connection from="-236912686" to="-236912684#2" fromLane="2" toLane="2"/>
    <connection from="-236912686" to="236912686" fromLane="2" toLane="2"/>

    <connection from="-236913290" to="-236912686" fromLane="0" toLane="0"/>
    <connection from="-236913290" to="-236912686" fromLane="1" toLane="1"/>
    <connection from="-236913290" to="-236912686" fromLane="2" toLane="2"/>
    <connection from="-236913290" to="236913290" fromLane="2" toLane="2"/>

    <connection from="-237277454" to="-508274046" fromLane="0" toLane="0"/>
    <connection from="-237277454" to="-508274046" fromLane="1" toLane="1"/>

    <connection from="-237277455" to="-510585241#1" fromLane="0" toLane="0"/>
    <connection from="-237277455" to="-510585241#1" fromLane="1" toLane="1"/>
    <connection from="-237277455" to="-510585241#1" fromLane="2" toLane="2"/>

    <connection from="-237277456" to="-237277454" fromLane="0" toLane="0"/>
    <connection from="-237277456" to="-237277454" fromLane="1" toLane="1"/>

    <connection from="-237277457" to="22295867#0" fromLane="0" toLane="0"/>
    <connection from="-237277457" to="-237277455" fromLane="0" toLane="0"/>
    <connection from="-237277457" to="-237277455" fromLane="1" toLane="1"/>
    <connection from="-237277457" to="-237277455" fromLane="2" toLane="2"/>

    <connection from="-237277458" to="-237277456" fromLane="0" toLane="0"/>
    <connection from="-237277458" to="-237277456" fromLane="1" toLane="1"/>

    <connection from="-238190567" to="-375766978#2" fromLane="0" toLane="0"/>
    <connection from="-238190567" to="-375766978#2" fromLane="1" toLane="1"/>

    <connection from="-238190573#1" to="34754110" fromLane="0" toLane="0"/>
    <connection from="-238190573#1" to="-293005690" fromLane="0" toLane="0"/>
    <connection from="-238190573#1" to="-293005690" fromLane="1" toLane="1"/>
    <connection from="-238190573#1" to="-293005690" fromLane="2" toLane="2"/>
    <connection from="-238190573#1" to="238190573#0" fromLane="2" toLane="2"/>

    <connection from="-238190575" to="19745621#0" fromLane="0" toLane="0"/>
    <connection from="-238190575" to="19745621#0" fromLane="1" toLane="1"/>
    <connection from="-238190575" to="238190575" fromLane="1" toLane="2"/>

    <connection from="-238191812" to="638719626" fromLane="0" toLane="0"/>
    <connection from="-238191812" to="-638719625" fromLane="0" toLane="0"/>
    <connection from="-238191812" to="238191812" fromLane="0" toLane="0"/>

    <connection from="-238191814#2" to="238191811#0" fromLane="0" toLane="0"/>
    <connection from="-238191814#2" to="-371705055#2" fromLane="0" toLane="0"/>
    <connection from="-238191814#2" to="-371705055#2" fromLane="1" toLane="1"/>
    <connection from="-238191814#2" to="238190565#0" fromLane="1" toLane="2"/>
    <connection from="-238191814#2" to="238191814#0" fromLane="1" toLane="1"/>

    <connection from="-238191820" to="-238190573#1" fromLane="0" toLane="0"/>
    <connection from="-238191820" to="-238190573#1" fromLane="1" toLane="1"/>
    <connection from="-238191820" to="-238190573#1" fromLane="2" toLane="2"/>
    <connection from="-238191820" to="238191820" fromLane="2" toLane="2"/>

    <connection from="-238193495#1" to="-238191812" fromLane="0" toLane="0"/>
    <connection from="-238193495#1" to="28355687" fromLane="0" toLane="0"/>
    <connection from="-238193495#1" to="639961911" fromLane="0" toLane="0"/>

    <connection from="-238193512#1" to="34761860" fromLane="0" toLane="0"/>

    <connection from="-238193533" to="-34761860" fromLane="0" toLane="0"/>

    <connection from="-238193537" to="-238193533" fromLane="0" toLane="0"/>
    <connection from="-238193537" to="27486919#0" fromLane="0" toLane="0"/>
    <connection from="-238193537" to="238193537" fromLane="0" toLane="0"/>

    <connection from="-238193545#2" to="-293005705#2" fromLane="0" toLane="0"/>
    <connection from="-238193545#2" to="-293005705#2" fromLane="1" toLane="1"/>
    <connection from="-238193545#2" to="-293005705#2" fromLane="2" toLane="2"/>

    <connection from="-238758032#1" to="53380859" fromLane="0" toLane="0"/>
    <connection from="-238758032#1" to="-182183037#1" fromLane="0" toLane="0"/>
    <connection from="-238758032#1" to="-182183037#1" fromLane="1" toLane="1"/>
    <connection from="-238758032#1" to="-30245182#2" fromLane="1" toLane="1"/>
    <connection from="-238758032#1" to="238758032#0" fromLane="1" toLane="1"/>

    <connection from="-238758034" to="30245182#0" fromLane="0" toLane="0"/>
    <connection from="-238758034" to="-293005693#1" fromLane="0" toLane="0"/>
    <connection from="-238758034" to="-293005693#1" fromLane="1" toLane="1"/>
    <connection from="-238758034" to="-293005693#1" fromLane="2" toLane="2"/>
    <connection from="-238758034" to="30245028#0" fromLane="2" toLane="0"/>
    <connection from="-238758034" to="238758034" fromLane="2" toLane="2"/>

    <connection from="-238760540#3" to="-332163720#1" fromLane="0" toLane="0"/>
    <connection from="-238760540#3" to="-238760542#2" fromLane="0" toLane="0"/>
    <connection from="-238760540#3" to="238760540#0" fromLane="0" toLane="0"/>

    <connection from="-238760541#1" to="-146272921" fromLane="0" toLane="0"/>
    <connection from="-238760541#1" to="78051516#0" fromLane="0" toLane="0"/>
    <connection from="-238760541#1" to="157502418#0" fromLane="0" toLane="0"/>

    <connection from="-238760542#2" to="-332163724" fromLane="0" toLane="0"/>
    <connection from="-238760542#2" to="238760542#0" fromLane="0" toLane="0"/>

    <connection from="-238829160" to="-34760695#2" fromLane="0" toLane="0"/>
    <connection from="-238829160" to="53785084" fromLane="0" toLane="0"/>
    <connection from="-238829160" to="238829160" fromLane="0" toLane="0"/>

    <connection from="-238829665#1" to="28527905#0" fromLane="0" toLane="0"/>
    <connection from="-238829665#1" to="-28036266#1" fromLane="0" toLane="0"/>
    <connection from="-238829665#1" to="238829665#0" fromLane="0" toLane="0"/>

    <connection from="-238831817" to="1022485707" fromLane="0" toLane="0"/>
    <connection from="-238831817" to="1022485707" fromLane="1" toLane="1"/>
    <connection from="-238831817" to="238831817" fromLane="1" toLane="1"/>

    <connection from="-238831818" to="30672266#0" fromLane="0" toLane="0"/>
    <connection from="-238831818" to="-238831817" fromLane="0" toLane="0"/>
    <connection from="-238831818" to="-238831817" fromLane="1" toLane="1"/>
    <connection from="-238831818" to="-238831820" fromLane="1" toLane="0"/>
    <connection from="-238831818" to="238831818" fromLane="1" toLane="1"/>

    <connection from="-238831820" to="-28024803" fromLane="0" toLane="0"/>
    <connection from="-238831820" to="-639346214" fromLane="0" toLane="0"/>
    <connection from="-238831820" to="238831820" fromLane="0" toLane="0"/>

    <connection from="-238831821#1" to="639346213" fromLane="0" toLane="0"/>
    <connection from="-238831821#1" to="-639346212" fromLane="0" toLane="0"/>
    <connection from="-238831821#1" to="238831821#0" fromLane="0" toLane="0"/>

    <connection from="-238833964" to="-36276109" fromLane="0" toLane="0"/>
    <connection from="-238833964" to="131002518" fromLane="0" toLane="0"/>
    <connection from="-238833964" to="238833964" fromLane="0" toLane="0"/>

    <connection from="-238833965" to="238833965" fromLane="0" toLane="0"/>

    <connection from="-238833966" to="-387205569" fromLane="0" toLane="0"/>
    <connection from="-238833966" to="-638515103" fromLane="0" toLane="0"/>
    <connection from="-238833966" to="238833966" fromLane="0" toLane="0"/>

    <connection from="-239075737#2" to="-239077122#1" fromLane="0" toLane="0"/>
    <connection from="-239075737#2" to="73037132#0" fromLane="0" toLane="0"/>
    <connection from="-239075737#2" to="239075737#1" fromLane="0" toLane="0"/>

    <connection from="-239075744#5" to="639340283" fromLane="0" toLane="0"/>
    <connection from="-239075744#5" to="639340283" fromLane="1" toLane="1"/>