<?xml version="1.0" encoding="UTF-8"?>

<!-- generated on 2025-09-19 13:24:53 by Eclipse SUMO netconvert Version 1.24.0
<netconvertConfiguration xmlns:xsi="http://www.w3.org/2001/XMLSchema-instance" xsi:noNamespaceSchemaLocation="http://sumo.dlr.de/xsd/netconvertConfiguration.xsd">

    <input>
        <sumo-net-file value="osm.net.xml"/>
    </input>

    <output>
        <plain-output-prefix value="network"/>
        <output.street-names value="true"/>
    </output>

    <processing>
        <geometry.min-radius.fix.railways value="false"/>
        <geometry.avoid-overlap value="false"/>
        <geometry.max-grade.fix value="false"/>
        <offset.disable-normalization value="true"/>
        <lefthand value="0"/>
    </processing>

    <junctions>
        <no-turnarounds value="true"/>
        <junctions.corner-detail value="5"/>
        <junctions.limit-turn-speed value="5.50"/>
        <rectangular-lane-cut value="0"/>
    </junctions>

    <pedestrian>
        <walkingareas value="0"/>
    </pedestrian>

</netconvertConfiguration>
-->

<edges version="1.20" xmlns:xsi="http://www.w3.org/2001/XMLSchema-instance" xsi:noNamespaceSchemaLocation="http://sumo.dlr.de/xsd/edges_file.xsd">
    <location netOffset="669789.62,-4488581.86" convBoundary="5.67,0.00,9041.48,8861.04" origBoundary="-6.016822,37.354118,-5.935571,37.417381" projParameter="+proj=merc +a=6378137 +b=6378137 +lat_ts=0.0 +lon_0=0.0 +x_0=0.0 +y_0=0 +k=1.0 +units=m +nadgrids=@null +wktext +no_defs"/>

    <edge id="-1000927079" from="696656636" to="696656647" name="Ronda de los Tejares" priority="10" type="highway.tertiary" numLanes="1" speed="22.22" shape="332.11,3226.61 304.06,3249.31 305.34,3274.22 307.13,3311.51 308.73,3327.95 315.60,3449.44 316.54,3465.98" disallow="tram rail_urban rail rail_electric rail_fast ship container cable_car subway aircraft wheelchair scooter drone">
        <lane index="0">
            <param key="origId" value="1000927079 1370977118"/>
        </lane>
    </edge>
    <edge id="-1019254303" from="9400957294" to="307724768" name="Calle Pueblo Saharaui" priority="10" type="highway.tertiary" numLanes="1" speed="8.33" shape="5334.46,6285.48 5321.39,6275.39 5317.01,6272.01 5256.03,6224.99" disallow="tram rail_urban rail rail_electric rail_fast ship container cable_car subway aircraft wheelchair scooter drone">
        <lane index="0">
            <param key="origId" value="1019254303"/>
        </lane>
    </edge>
    <edge id="-1019254304" from="8294510092" to="9400957295" name="Calle Hespérides" priority="10" type="highway.tertiary" numLanes="1" speed="13.89" disallow="tram rail_urban rail rail_electric rail_fast ship container cable_car subway aircraft wheelchair scooter drone">
        <lane index="0">
            <param key="origId" value="1019254304"/>
        </lane>
    </edge>
    <edge id="-1019458868" from="9400957291" to="3687531247" name="Calle Vicente Alanís" priority="3" type="highway.residential" numLanes="1" speed="13.89" disallow="tram rail_urban rail rail_electric rail_fast ship container cable_car subway aircraft wheelchair scooter drone">
        <lane index="0">
            <param key="origId" value="1019458868"/>
        </lane>
    </edge>
    <edge id="-1044163467#1" from="244017590" to="332587943" name="Avenida Ramón y Cajal" priority="12" type="highway.primary" numLanes="2" speed="27.78" shape="4663.10,3222.37 4678.46,3216.86 4711.54,3204.86 4783.91,3178.83 4821.31,3165.68 4826.00,3164.02 4873.60,3146.26" disallow="tram rail_urban rail rail_electric rail_fast ship container cable_car subway aircraft wheelchair scooter drone">
        <lane index="0">
            <param key="origId" value="1044163467 1044163467 446860669 892407187"/>
        </lane>
        <lane index="1">
            <param key="origId" value="1044163467 1044163467 446860669 892407187"/>
        </lane>
    </edge>
    <edge id="-1056895529#0" from="2017065047" to="294602922" name="Calle Santa Fe" priority="12" type="highway.primary" numLanes="2" speed="27.78" disallow="tram rail_urban rail rail_electric rail_fast ship container cable_car subway aircraft wheelchair scooter drone">
        <lane index="0">
            <param key="origId" value="1056895529"/>
        </lane>
        <lane index="1">
            <param key="origId" value="1056895529"/>
        </lane>
    </edge>
    <edge id="-1056895529#1" from="314330614" to="2017065047" name="Calle Santa Fe" priority="12" type="highway.primary" numLanes="2" speed="27.78" shape="1436.39,2782.97 1449.68,2760.28 1458.53,2740.83 1463.66,2729.11" disallow="tram rail_urban rail rail_electric rail_fast ship container cable_car subway aircraft wheelchair scooter drone">
        <lane index="0">
            <param key="origId" value="1056895529"/>
        </lane>
        <lane index="1">
            <param key="origId" value="1056895529"/>
        </lane>
    </edge>
    <edge id="-1057376886#1" from="311405240" to="307802088" name="Plaza Manuel Garrido" priority="3" type="highway.residential" numLanes="1" speed="13.89" shape="4056.46,7152.46 4067.19,7146.81 4079.04,7140.58" disallow="tram rail_urban rail rail_electric rail_fast ship container cable_car subway aircraft wheelchair scooter drone">
        <lane index="0">
            <param key="origId" value="1057376886"/>
        </lane>
    </edge>
    <edge id="-1057719410#0" from="cluster_307724409_811194939" to="307728315" name="Calle Andrés Segovia" priority="3" type="highway.residential" numLanes="1" speed="13.89" shape="5180.71,6391.01 5176.46,6399.58 5162.10,6430.62 5145.65,6466.23 5130.55,6498.80 5101.89,6560.34 5096.99,6570.89 5094.11,6577.56" disallow="tram rail_urban rail rail_electric rail_fast ship container cable_car subway aircraft wheelchair scooter drone">
        <lane index="0">
            <param key="origId" value="1057719410 330962458"/>
        </lane>
        <param key="origFrom" value="307724409"/>
    </edge>
    <edge id="-1086372857#1" from="307843846" to="307846571" name="Calle Carretera de Carmona" priority="11" type="highway.secondary" numLanes="2" speed="27.78" shape="5965.07,6823.70 5961.11,6824.11 5959.90,6824.24" disallow="tram rail_urban rail rail_electric rail_fast ship container cable_car subway aircraft wheelchair scooter drone">
        <lane index="0">
            <param key="origId" value="1086372857"/>
        </lane>
        <lane index="1">
            <param key="origId" value="1086372857"/>
        </lane>
    </edge>
    <edge id="-1087973027#1" from="332594235" to="418511036" name="Avenida de Eduardo Dato" priority="12" type="highway.primary" numLanes="2" speed="13.89" shape="5242.49,3932.39 5228.11,3935.83 5188.36,3945.35 5119.91,3961.74 5049.72,3978.53" disallow="tram rail_urban rail rail_electric rail_fast ship container cable_car subway aircraft wheelchair scooter drone">
        <lane index="0">
            <param key="origId" value="1087973027"/>
        </lane>
        <lane index="1">
            <param key="origId" value="1087973027"/>
        </lane>
    </edge>
    <edge id="-1105850727" from="311408988" to="311408987" name="Avenida de la Borbolla" priority="11" type="highway.secondary" numLanes="3" speed="27.78" shape="3515.36,2847.79 3519.18,2860.58 3566.87,3030.65 3611.22,3186.41" width="2.00" disallow="tram rail_urban rail rail_electric rail_fast ship container cable_car subway aircraft wheelchair scooter drone">
        <lane index="0">
            <param key="origId" value="1105850727"/>
        </lane>
        <lane index="1">
            <param key="origId" value="1105850727"/>
        </lane>
        <lane index="2">
            <param key="origId" value="1105850727"/>
        </lane>
    </edge>
    <edge id="-1105853442" from="426934169" to="cluster_244016563_8118303677" name="Avenida de la Borbolla" priority="11" type="highway.secondary" numLanes="3" speed="27.78" shape="3633.21,3241.72 3639.51,3258.78 3644.56,3272.45 3653.29,3296.10 3656.31,3304.28 3663.34,3323.30" width="2.00" disallow="tram rail_urban rail rail_electric rail_fast ship container cable_car subway aircraft wheelchair scooter drone">
        <lane index="0">
            <param key="origId" value="1105853442 639334643"/>
        </lane>
        <lane index="1">
            <param key="origId" value="1105853442 639334643"/>
        </lane>
        <lane index="2">
            <param key="origId" value="1105853442 639334643"/>
        </lane>
        <param key="origTo" value="244016563"/>
    </edge>
    <edge id="-1121908324#1" from="306100736" to="cluster_1279783691_306095697" name="Avenida Pablo Iglesias" priority="11" type="highway.secondary" numLanes="1" speed="27.78" shape="4535.82,5519.45 4537.04,5520.66 4551.24,5533.84 4769.87,5749.30 4780.05,5759.33 4784.03,5763.09 4786.47,5765.42" disallow="tram rail_urban rail rail_electric rail_fast ship container cable_car subway aircraft wheelchair scooter drone">
        <lane index="0">
            <param key="origId" value="1121908324 1121908324 1121908323 1121908323"/>
        </lane>
        <param key="origTo" value="1279783691"/>
    </edge>
    <edge id="-1121908324#5" from="870048436" to="306100736" name="Avenida Pablo Iglesias" priority="11" type="highway.secondary" numLanes="1" speed="27.78" shape="4330.33,5313.15 4331.72,5314.55 4336.92,5319.76 4452.84,5436.14 4466.13,5449.48 4527.11,5510.71 4535.82,5519.45" disallow="tram rail_urban rail rail_electric rail_fast ship container cable_car subway aircraft wheelchair scooter drone">
        <lane index="0">
            <param key="origId" value="1121908324"/>
        </lane>
    </edge>
    <edge id="-112714894" from="249801412" to="205335885" name="Calle Santa María de Valverde" priority="2" type="highway.living_street" numLanes="1" speed="2.78" shape="4824.92,6841.37 4831.32,6802.00 4833.33,6785.92 4839.37,6753.99 4846.19,6710.48 4851.01,6679.23 4851.43,6675.92 4854.90,6664.79" disallow="tram rail_urban rail rail_electric rail_fast ship container cable_car subway aircraft wheelchair scooter drone">
        <lane index="0">
            <param key="origId" value="112714894 112714872 23135869"/>
        </lane>
    </edge>
    <edge id="-1137958420" from="10607189027" to="632266933" name="Calle Juan Bautista Muñoz" priority="10" type="highway.tertiary" numLanes="2" speed="13.89" shape="2001.55,7984.98 2008.46,7978.15 2088.91,7898.72 2132.60,7855.58" disallow="tram rail_urban rail rail_electric rail_fast ship container cable_car subway aircraft wheelchair scooter drone">
        <lane index="0">
            <param key="origId" value="1137958420"/>
        </lane>
        <lane index="1">
            <param key="origId" value="1137958420"/>
        </lane>
    </edge>
    <edge id="-1137958425" from="347098992" to="10607189027" name="Calle Juan Bautista Muñoz" priority="10" type="highway.tertiary" numLanes="2" speed="8.33" shape="1914.03,8071.48 1919.57,8066.55 1956.81,8030.14 1959.80,8027.09 1978.87,8007.77 1993.77,7992.66 2001.55,7984.98" disallow="tram rail_urban rail rail_electric rail_fast ship container cable_car subway aircraft wheelchair scooter drone">
        <lane index="0">
            <param key="origId" value="1137958425 1137958424"/>
        </lane>
        <lane index="1">
            <param key="origId" value="1137958425 1137958424"/>
        </lane>
    </edge>
    <edge id="-1137958437" from="632266933" to="735343585" name="Calle Juan Bautista Muñoz" priority="10" type="highway.tertiary" numLanes="2" speed="13.89" shape="2132.60,7855.58 2201.69,7786.84 2234.95,7754.30 2250.95,7738.63 2269.60,7720.21 2288.82,7701.07 2292.00,7697.93" disallow="tram rail_urban rail rail_electric rail_fast ship container cable_car subway aircraft wheelchair scooter drone">
        <lane index="0">
            <param key="origId" value="1137958437 285531482"/>
        </lane>
        <lane index="1">
            <param key="origId" value="1137958437 285531482"/>
        </lane>
    </edge>
    <edge id="-1138018269" from="688991181" to="cluster_619038969_688991218" name="Calle Américo Vespucio" priority="10" type="highway.tertiary" numLanes="2" speed="22.22" shape="807.17,6428.63 810.67,6444.85 830.03,6534.23 832.68,6545.54" disallow="tram rail_urban rail rail_electric rail_fast ship container cable_car subway aircraft wheelchair scooter drone">
        <lane index="0">
            <param key="origId" value="1138018269 700944779"/>
        </lane>
        <lane index="1">
            <param key="origId" value="1138018269 700944779"/>
        </lane>
        <param key="origTo" value="688991218"/>
    </edge>
    <edge id="-113880132" from="837182465" to="1291083709" name="Calle José María Moreno Galván" priority="11" type="highway.secondary" numLanes="1" speed="27.78" shape="3754.98,4585.56 3731.75,4515.91 3683.82,4373.71" disallow="tram rail_urban rail rail_electric rail_fast ship container cable_car subway aircraft wheelchair scooter drone">
        <lane index="0">
            <param key="origId" value="113880132"/>
        </lane>
    </edge>
    <edge id="-113880679#0" from="239937329" to="1325751621" name="Calle Juan de Mata Carriazo" priority="11" type="highway.secondary" numLanes="2" speed="27.78" shape="3699.21,3848.30 3700.71,3839.64 3703.07,3828.86 3707.82,3812.06 3743.72,3717.55 3753.19,3692.77 3764.25,3664.28" disallow="tram rail_urban rail rail_electric rail_fast ship container cable_car subway aircraft wheelchair scooter drone">
        <lane index="0">
            <param key="origId" value="113880679 28354664"/>
        </lane>
        <lane index="1">
            <param key="origId" value="113880679 28354664"/>
        </lane>
    </edge>
    <edge id="-113880679#1" from="2815526911" to="239937329" name="Calle Juan de Mata Carriazo" priority="11" type="highway.secondary" numLanes="2" speed="27.78" disallow="tram rail_urban rail rail_electric rail_fast ship container cable_car subway aircraft wheelchair scooter drone">
        <lane index="0">
            <param key="origId" value="113880679"/>
        </lane>
        <lane index="1">
            <param key="origId" value="113880679"/>
        </lane>
    </edge>
    <edge id="-113880679#2" from="239937500" to="2815526911" name="Calle Juan de Mata Carriazo" priority="11" type="highway.secondary" numLanes="2" speed="27.78" disallow="tram rail_urban rail rail_electric rail_fast ship container cable_car subway aircraft wheelchair scooter drone">
        <lane index="0">
            <param key="origId" value="113880679"/>
        </lane>
        <lane index="1">
            <param key="origId" value="113880679"/>
        </lane>
    </edge>
    <edge id="-1156001077" from="475004472" to="582633146" name="Avenida de Hytasa" priority="12" type="highway.primary" numLanes="2" speed="13.89" disallow="tram rail_urban rail rail_electric rail_fast ship container cable_car subway aircraft wheelchair scooter drone">
        <lane index="0">
            <param key="origId" value="1156001077"/>
        </lane>
        <lane index="1">
            <param key="origId" value="1156001077"/>
        </lane>
    </edge>
    <edge id="-1156001078" from="582633146" to="582633156" name="Avenida de Hytasa" priority="12" type="highway.primary" numLanes="2" speed="13.89" shape="5972.38,2583.88 5956.78,2596.74 5946.84,2604.91 5930.89,2617.71 5912.66,2632.95 5910.59,2634.65 5873.71,2664.89 5870.88,2667.20" disallow="tram rail_urban rail rail_electric rail_fast ship container cable_car subway aircraft wheelchair scooter drone">
        <lane index="0">
            <param key="origId" value="1156001078 45744238"/>
        </lane>
        <lane index="1">
            <param key="origId" value="1156001078 45744238"/>
        </lane>
    </edge>
    <edge id="-1160122274" from="306100790" to="249803657" name="Avenida Alcalde Manuel de Valle" priority="12" type="highway.primary" numLanes="3" speed="27.78" shape="5314.53,6846.07 5318.03,6866.23 5318.64,6870.52 5331.02,6928.09 5333.70,6942.83 5347.37,7012.48 5349.80,7024.89" disallow="tram rail_urban rail rail_electric rail_fast ship container cable_car subway aircraft wheelchair scooter drone">
        <lane index="0">
            <param key="origId" value="1160122274 238580265 238580263"/>
        </lane>
        <lane index="1">
            <param key="origId" value="1160122274 238580265 238580263"/>
        </lane>
        <lane index="2">
            <param key="origId" value="1160122274 238580265 238580263"/>
        </lane>
    </edge>
    <edge id="-1160125533" from="198285861" to="13031341036" name="Paseo de Cristóbal Colón" priority="12" type="highway.primary" numLanes="3" speed="13.89" shape="1830.03,4542.43 1827.18,4545.89 1816.08,4559.33 1785.68,4590.22" disallow="tram rail_urban rail rail_electric rail_fast ship container cable_car subway aircraft wheelchair scooter drone">
        <lane index="0">
            <param key="origId" value="1160125533 1160125534"/>
        </lane>
        <lane index="1">
            <param key="origId" value="1160125533 1160125534"/>
        </lane>
        <lane index="2">
            <param key="origId" value="1160125533 1160125534"/>
        </lane>
    </edge>
    <edge id="-117107052" from="746303098" to="728689687" name="Calle Antioquía" priority="10" type="highway.tertiary" numLanes="1" speed="22.22" disallow="tram rail_urban rail rail_electric rail_fast ship container cable_car subway aircraft wheelchair scooter drone">
        <lane index="0">
            <param key="origId" value="117107052"/>
        </lane>
    </edge>
    <edge id="-122193817" from="418390981" to="297892621" name="Avenida de la Buhaira" priority="11" type="highway.secondary" numLanes="1" speed="27.78" shape="4125.12,3699.89 4130.09,3792.52 4134.90,3850.91 4153.32,4144.06 4157.98,4168.21 4159.01,4173.52 4166.68,4188.64" disallow="tram rail_urban rail rail_electric rail_fast ship container cable_car subway aircraft wheelchair scooter drone">
        <lane index="0">
            <param key="origId" value="122193817"/>
        </lane>
    </edge>
    <edge id="-1241770981" from="3535117845" to="3535117847" name="Calle Francisco de Montesinos" priority="10" type="highway.tertiary" numLanes="2" speed="22.22" shape="930.19,5777.09 962.01,5770.35 972.68,5769.30 982.31,5771.09 992.58,5776.08" disallow="tram rail_urban rail rail_electric rail_fast ship container cable_car subway aircraft wheelchair scooter drone">
        <lane index="0">
            <param key="origId" value="1241770981"/>
        </lane>
        <lane index="1">
            <param key="origId" value="1241770981"/>
        </lane>
    </edge>
    <edge id="-124717943#1" from="702183421" to="1361551535" name="Calle San José de Palmete" priority="10" type="highway.tertiary" numLanes="1" speed="22.22" shape="8994.58,3536.95 8962.04,3568.81 8918.91,3610.34" disallow="tram rail_urban rail rail_electric rail_fast ship container cable_car subway aircraft wheelchair scooter drone">
        <lane index="0">
            <param key="origId" value="124717943"/>
        </lane>
    </edge>
    <edge id="-1298616762" from="325686537" to="84808263" name="Calle Pagés del Corro" priority="11" type="highway.secondary" numLanes="1" speed="27.78" shape="1001.23,4465.84 1006.65,4461.77 1010.87,4458.59 1089.56,4399.54 1103.48,4389.10 1147.48,4352.20 1187.07,4315.64 1213.83,4281.34 1219.86,4273.21 1222.19,4270.09 1247.78,4231.11 1294.89,4156.64 1296.08,4154.82 1304.05,4142.81" disallow="tram rail_urban rail rail_electric rail_fast ship container cable_car subway aircraft wheelchair scooter drone">
        <lane index="0">
            <param key="origId" value="1298616762 338940730 338940730 1298616760"/>
        </lane>
    </edge>
    <edge id="-1303420787#1" from="cluster_2106336860_364160954_866822352" to="427041473" name="Calle Poeta Manuel Benítez Carrasco" priority="12" type="highway.primary" numLanes="2" speed="8.33" shape="5046.82,1708.83 5043.01,1702.11 5028.19,1679.22 4983.38,1610.00 4963.44,1579.18" disallow="tram rail_urban rail rail_electric rail_fast ship container cable_car subway aircraft wheelchair scooter drone">
        <lane index="0">
            <param key="origId" value="1303420787"/>
        </lane>
        <lane index="1">
            <param key="origId" value="1303420787"/>
        </lane>
        <param key="origFrom" value="364160954"/>
    </edge>
    <edge id="-1303420789#3" from="427041473" to="427041475" name="Calle Poeta Manuel Benítez Carrasco" priority="12" type="highway.primary" numLanes="2" speed="8.33" shape="4963.44,1579.18 4956.08,1567.99 4952.48,1562.52 4948.02,1555.74 4924.45,1519.92" disallow="tram rail_urban rail rail_electric rail_fast ship container cable_car subway aircraft wheelchair scooter drone">
        <lane index="0">
            <param key="origId" value="1303420789"/>
        </lane>
        <lane index="1">
            <param key="origId" value="1303420789"/>
        </lane>
    </edge>
    <edge id="-132203511" from="427144321" to="3898736475" name="Calle San José de Palmete" priority="10" type="highway.tertiary" numLanes="1" speed="22.22" shape="8656.85,3847.22 8643.27,3858.31 8618.62,3875.51 8589.51,3893.36 8531.51,3926.74" disallow="tram rail_urban rail rail_electric rail_fast ship container cable_car subway aircraft wheelchair scooter drone">
        <lane index="0">
            <param key="origId" value="132203511 446863477"/>
        </lane>
    </edge>
    <edge id="-1323409157#1" from="12246240988" to="307860545" name="Calle Éfeso" priority="12" type="highway.primary" numLanes="3" speed="27.78" shape="5695.55,5919.76 5681.68,5934.19 5673.68,5942.60" disallow="tram rail_urban rail rail_electric rail_fast ship container cable_car subway aircraft wheelchair scooter drone">
        <lane index="0">
            <param key="origId" value="1323409157"/>
        </lane>
        <lane index="1">
            <param key="origId" value="1323409157"/>
        </lane>
        <lane index="2">
            <param key="origId" value="1323409157"/>
        </lane>
    </edge>
    <edge id="-1342183270" from="12416504439" to="12416504440" priority="12" type="highway.primary" numLanes="2" speed="27.78" shape="6970.60,3682.56 6970.72,3694.57 6969.59,3696.82 6965.05,3705.58" disallow="tram rail_urban rail rail_electric rail_fast ship container cable_car subway aircraft wheelchair scooter drone">
        <lane index="0">
            <param key="origId" value="1342183270"/>
        </lane>
        <lane index="1">
            <param key="origId" value="1342183270"/>
        </lane>
    </edge>
    <edge id="-1342183271#0" from="12416504405" to="12416504439" priority="12" type="highway.primary" numLanes="2" speed="27.78" shape="7012.17,3705.53 7006.19,3646.07 7003.14,3640.83 6998.69,3635.52 6990.45,3632.43 6982.74,3632.08 6976.56,3635.52 6971.32,3642.79 6968.33,3647.35 6968.15,3654.08 6969.96,3672.43 6970.60,3682.56" disallow="tram rail_urban rail rail_electric rail_fast ship container cable_car subway aircraft wheelchair scooter drone">
        <lane index="0">
            <param key="origId" value="1342183271"/>
        </lane>
        <lane index="1">
            <param key="origId" value="1342183271"/>
        </lane>
    </edge>
    <edge id="-1342183271#1" from="12416504439" to="12416504405" priority="12" type="highway.primary" numLanes="2" speed="27.78" shape="6970.60,3682.56 6973.53,3697.44 6975.33,3713.56 6980.17,3720.58 6985.31,3724.52 6991.65,3725.89 7001.26,3724.00 7003.83,3721.77 7008.29,3717.15 7012.40,3707.89 7012.17,3705.53" disallow="tram rail_urban rail rail_electric rail_fast ship container cable_car subway aircraft wheelchair scooter drone">
        <lane index="0">
            <param key="origId" value="1342183271"/>
        </lane>
        <lane index="1">
            <param key="origId" value="1342183271"/>
        </lane>
    </edge>
    <edge id="-135516567" from="cluster_2540014916_2540014919" to="687554876" name="Paseo de la Palmera" priority="12" type="highway.primary" numLanes="3" speed="13.89" shape="3325.45,1920.95 3320.17,1932.41 3317.51,1937.74 3263.05,2051.54 3256.91,2063.71" disallow="tram rail_urban rail rail_electric rail_fast ship container cable_car subway aircraft wheelchair scooter drone">
        <lane index="0">
            <param key="origId" value="135516567 332101605 332101605 332101605"/>
        </lane>
        <lane index="1">
            <param key="origId" value="135516567 332101605 332101605 332101605"/>
        </lane>
        <lane index="2">
            <param key="origId" value="135516567 332101605 332101605 332101605"/>
        </lane>
        <param key="origFrom" value="2540014919"/>
    </edge>
    <edge id="-135737407" from="2402267084" to="1490231787" name="Calle Cardenal Bueno Monreal" priority="12" type="highway.primary" numLanes="1" speed="27.78" shape="4440.50,2489.40 4433.32,2467.21 4394.38,2346.22 4390.13,2332.99 4360.35,2239.62" disallow="pedestrian tram rail_urban rail rail_electric rail_fast ship container cable_car subway aircraft wheelchair scooter drone">
        <lane index="0">
            <param key="origId" value="135737407"/>
        </lane>
    </edge>
    <edge id="-1368388384" from="332615620" to="513989743" name="Ronda del Tamarguillo" priority="12" type="highway.primary" numLanes="3" speed="13.89" disallow="tram rail_urban rail rail_electric rail_fast ship container cable_car subway aircraft wheelchair scooter drone">
        <lane index="0">
            <param key="origId" value="1368388384"/>
        </lane>
        <lane index="1">
            <param key="origId" value="1368388384"/>
        </lane>
        <lane index="2">
            <param key="origId" value="1368388384"/>
        </lane>
    </edge>
    <edge id="-1368388731#1" from="304501816" to="332615620" name="Ronda del Tamarguillo" priority="12" type="highway.primary" numLanes="3" speed="13.89" shape="6246.29,3273.98 6247.67,3279.96 6250.97,3307.42 6259.84,3381.49" disallow="tram rail_urban rail rail_electric rail_fast ship container cable_car subway aircraft wheelchair scooter drone">
        <lane index="0">
            <param key="origId" value="1368388731"/>
        </lane>
        <lane index="1">
            <param key="origId" value="1368388731"/>
        </lane>
        <lane index="2">
            <param key="origId" value="1368388731"/>
        </lane>
    </edge>
    <edge id="-1368388731#2" from="304501818" to="304501816" name="Ronda del Tamarguillo" priority="12" type="highway.primary" numLanes="3" speed="13.89" disallow="tram rail_urban rail rail_electric rail_fast ship container cable_car subway aircraft wheelchair scooter drone">
        <lane index="0">
            <param key="origId" value="1368388731"/>
        </lane>
        <lane index="1">
            <param key="origId" value="1368388731"/>
        </lane>
        <lane index="2">
            <param key="origId" value="1368388731"/>
        </lane>
    </edge>
    <edge id="-1368691157#4" from="581093188" to="cluster_332586542_332586834" name="Calle Francisco Buendia" priority="3" type="highway.residential" numLanes="1" speed="13.89" shape="6190.89,3186.55 6176.12,3188.01 6171.71,3188.64 6164.92,3189.55 6160.73,3189.67 6153.43,3190.47 6087.92,3198.36 6032.46,3204.09 6014.59,3206.11 5986.95,3208.89 5941.28,3213.49 5893.47,3218.67 5784.86,3230.45 5704.49,3239.18 5678.74,3241.97 5644.96,3245.60 5639.41,3246.18 5632.78,3246.90 5623.92,3247.80" disallow="tram rail_urban rail rail_electric rail_fast ship container cable_car subway aircraft wheelchair scooter drone">
        <lane index="0">
            <param key="origId" value="1368691157 1368691157 670673916 30186740 30186740 30186740 30186740"/>
        </lane>
        <param key="origTo" value="332586542"/>
    </edge>
    <edge id="-1370956307#2" from="12697308481" to="12697308553" name="Calle Éfeso" priority="12" type="highway.primary" numLanes="1" speed="27.78" shape="6001.22,5600.48 5993.89,5610.15 5987.27,5617.84 5962.53,5646.64 5950.48,5660.65" disallow="tram rail_urban rail rail_electric rail_fast ship container cable_car subway aircraft wheelchair scooter drone">
        <lane index="0">
            <param key="origId" value="1370956307"/>
        </lane>
    </edge>
    <edge id="-1370956307#3" from="307860549" to="12697308481" name="Calle Éfeso" priority="12" type="highway.primary" numLanes="1" speed="27.78" shape="6057.02,5538.36 6038.11,5551.86 6001.22,5600.48" disallow="tram rail_urban rail rail_electric rail_fast ship container cable_car subway aircraft wheelchair scooter drone">
        <lane index="0">
            <param key="origId" value="1370956307"/>
        </lane>
    </edge>
    <edge id="-1372160681#2" from="746302930" to="307860553" name="Calle Ada" priority="12" type="highway.primary" numLanes="1" speed="13.89" shape="6390.50,5127.73 6384.50,5141.71 6382.63,5146.08 6362.60,5195.15 6347.34,5226.27" disallow="tram rail_urban rail rail_electric rail_fast ship container cable_car subway aircraft wheelchair scooter drone">
        <lane index="0">
            <param key="origId" value="1372160681"/>
        </lane>
    </edge>
    <edge id="-1372216572" from="688991273" to="688991274" name="Calle Louis Braille" priority="3" type="highway.residential" numLanes="1" speed="13.89" disallow="tram rail_urban rail rail_electric rail_fast ship container cable_car subway aircraft wheelchair scooter drone">
        <lane index="0">
            <param key="origId" value="1372216572"/>
        </lane>
    </edge>
    <edge id="-1372216573#3" from="cluster_304791383_304791384" to="1567789617" name="Camino de los Descubrimientos" priority="10" type="highway.tertiary" numLanes="2" speed="22.22" shape="1510.62,7204.14 1507.97,7191.74 1507.07,7187.44 1505.79,7181.34 1502.35,7164.41 1465.79,6990.78 1463.43,6979.56 1453.87,6936.15 1444.70,6892.86" disallow="tram rail_urban rail rail_electric rail_fast ship container cable_car subway aircraft wheelchair scooter drone">
        <lane index="0">
            <param key="origId" value="1372216573"/>