<?xml version="1.0" encoding="UTF-8"?>

<!-- generated on 2025-09-18 14:21:46 by Eclipse SUMO netconvert Version 1.24.0
<netconvertConfiguration xmlns:xsi="http://www.w3.org/2001/XMLSchema-instance" xsi:noNamespaceSchemaLocation="http://sumo.dlr.de/xsd/netconvertConfiguration.xsd">

    <input>
        <sumo-net-file value="network.net.xml"/>
    </input>

    <output>
        <plain-output-prefix value="network"/>
        <output.street-names value="true"/>
    </output>

    <processing>
        <geometry.min-radius.fix.railways value="false"/>
        <geometry.avoid-overlap value="false"/>
        <geometry.max-grade.fix value="false"/>
        <offset.disable-normalization value="true"/>
        <lefthand value="0"/>
    </processing>

    <junctions>
        <no-turnarounds value="true"/>
        <junctions.corner-detail value="5"/>
        <junctions.limit-turn-speed value="5.50"/>
        <rectangular-lane-cut value="0"/>
    </junctions>

    <pedestrian>
        <walkingareas value="0"/>
    </pedestrian>

</netconvertConfiguration>
-->

<nodes version="1.20" xmlns:xsi="http://www.w3.org/2001/XMLSchema-instance" xsi:noNamespaceSchemaLocation="http://sumo.dlr.de/xsd/nodes_file.xsd">
    <location netOffset="669789.62,-4488581.86" convBoundary="5.67,0.00,9041.48,8861.04" origBoundary="-6.016822,37.354118,-5.935571,37.417381" projParameter="+proj=merc +a=6378137 +b=6378137 +lat_ts=0.0 +lon_0=0.0 +x_0=0.0 +y_0=0 +k=1.0 +units=m +nadgrids=@null +wktext +no_defs"/>

    <node id="10002007045" x="551.90" y="1482.17" type="priority"/>
    <node id="10002034315" x="7854.01" y="6453.81" type="priority"/>
    <node id="10105420000" x="4293.23" y="2106.43" type="priority"/>
    <node id="10148518334" x="6403.34" y="911.94" type="priority"/>
    <node id="10148518339" x="6482.04" y="931.14" type="priority"/>
    <node id="10261198096" x="4777.92" y="5784.89" type="priority"/>
    <node id="10292239291" x="2542.49" y="8450.58" type="priority"/>
    <node id="10300590751" x="5350.45" y="6315.31" type="priority"/>
    <node id="10300590752" x="5346.64" y="6291.20" type="priority"/>
    <node id="1060131758" x="7300.01" y="381.96" type="dead_end"/>
    <node id="1060131896" x="7214.04" y="319.80" type="priority"/>
    <node id="1060131941" x="7345.00" y="367.21" type="priority"/>
    <node id="1060132067" x="7134.47" y="524.58" type="priority"/>
    <node id="1060132085" x="7377.75" y="444.22" type="priority"/>
    <node id="1060132134" x="7213.50" y="330.69" type="priority"/>
    <node id="1060132136" x="7450.72" y="422.36" type="priority"/>
    <node id="10607189027" x="2001.55" y="7984.98" type="priority"/>
    <node id="1073274889" x="3832.54" y="7391.72" type="priority"/>
    <node id="10960331530" x="3742.98" y="4816.46" type="priority"/>
    <node id="1123226666" x="4242.19" y="7450.12" type="traffic_light" tl="joinedS_1123226666_422989187_422989193_810358860" tlType="actuated"/>
    <node id="1124081376" x="8559.03" y="7078.54" type="priority"/>
    <node id="1124081391" x="8556.08" y="7064.59" type="priority"/>
    <node id="11244218704" x="6782.94" y="626.61" type="priority"/>
    <node id="11244218705" x="6978.37" y="838.30" type="priority"/>
    <node id="11244218709" x="6747.69" y="609.61" type="priority"/>
    <node id="1132939996" x="829.09" y="5114.51" type="priority"/>
    <node id="11383609628" x="7484.86" y="7972.94" type="priority"/>
    <node id="11383609629" x="7469.50" y="7968.83" type="priority"/>
    <node id="11399971584" x="6558.84" y="922.68" type="priority"/>
    <node id="11399971585" x="6626.01" y="886.84" type="priority"/>
    <node id="11399971608" x="6993.72" y="657.70" type="priority"/>
    <node id="11399971612" x="7055.35" y="607.21" type="priority"/>
    <node id="11399971616" x="7131.72" y="963.31" type="priority"/>
    <node id="11435790598" x="4781.14" y="8841.60" type="dead_end"/>
    <node id="1145282646" x="5143.02" y="171.54" type="priority"/>
    <node id="11482701691" x="4836.64" y="4008.88" type="priority"/>
    <node id="11482701698" x="4869.52" y="4033.86" type="priority"/>
    <node id="11482701701" x="4851.57" y="4044.77" type="priority"/>
    <node id="11482701720" x="4213.01" y="3333.29" type="traffic_light" tl="GS_11482701720" tlType="actuated"/>
    <node id="1149335538" x="7863.88" y="6253.24" type="priority"/>
    <node id="1149335595" x="9041.48" y="7194.08" type="dead_end"/>
    <node id="1149335599" x="9006.31" y="7089.34" type="priority"/>
    <node id="1149942713-AddedOnRampNode" x="262.71" y="3423.93" type="priority"/>
    <node id="11553404607" x="4860.04" y="4004.73" type="priority"/>
    <node id="1188156665" x="1624.23" y="4839.51" type="traffic_light" tl="1188156665" tlType="actuated"/>
    <node id="11909927321" x="1103.06" y="920.86" type="priority"/>
    <node id="11909981038" x="1098.37" y="825.43" type="priority"/>
    <node id="11920407800" x="7231.43" y="8488.92" type="priority"/>
    <node id="11920407814" x="7223.32" y="8475.13" type="priority"/>
    <node id="11920407818" x="7630.82" y="7171.80" type="priority"/>
    <node id="11920407819" x="7622.85" y="7197.05" type="priority"/>
    <node id="11920407826" x="7503.42" y="7830.56" type="priority"/>
    <node id="11920407851" x="7524.26" y="7667.32" type="priority"/>
    <node id="11920407853" x="7518.55" y="7719.63" type="priority"/>
    <node id="12087433067" x="7265.72" y="1112.89" type="priority"/>
    <node id="12087510772" x="7196.68" y="1033.07" type="priority"/>
    <node id="12087510773" x="7410.05" y="1200.35" type="priority"/>
    <node id="1216539593" x="8036.57" y="3028.35" type="priority"/>
    <node id="1216539600" x="8008.13" y="3025.87" type="priority"/>
    <node id="1216539601" x="8014.99" y="3038.26" type="priority"/>
    <node id="12184537568" x="8071.66" y="6523.49" type="traffic_light" tl="GS_12184537568" tlType="actuated"/>
    <node id="12184537572" x="8038.83" y="6493.13" type="priority"/>
    <node id="12184537575" x="8055.89" y="6519.59" type="priority"/>
    <node id="12184578518" x="8103.95" y="6492.73" type="priority"/>
    <node id="12184578523" x="8083.30" y="6460.47" type="priority"/>
    <node id="12184578549" x="7872.76" y="6238.05" type="priority"/>
    <node id="12184578561" x="7886.99" y="6298.82" type="priority"/>
    <node id="12184578563" x="7891.46" y="6319.78" type="traffic_light" tl="GS_12184578563" tlType="actuated"/>
    <node id="12184578571" x="7940.06" y="6313.60" type="priority"/>
    <node id="12189630858" x="7933.64" y="6199.25" type="priority"/>
    <node id="12242022211" x="5188.30" y="5538.12" type="priority"/>
    <node id="12242022216" x="5036.61" y="5406.12" type="priority"/>
    <node id="12246240958" x="5600.00" y="6007.80" type="priority"/>
    <node id="12246240963" x="5630.33" y="6035.81" type="priority"/>
    <node id="12246240988" x="5695.55" y="5919.76" type="priority"/>
    <node id="12246240990" x="5639.69" y="5965.56" type="priority"/>
    <node id="12246240993" x="5546.04" y="5924.21" type="priority"/>
    <node id="1229546999" x="5635.43" y="3819.29" type="priority"/>
    <node id="12299040683" x="7874.41" y="50.49" type="dead_end"/>
    <node id="12416504405" x="7012.17" y="3705.53" type="priority"/>
    <node id="12416504439" x="6970.60" y="3682.56" type="priority"/>
    <node id="12416504440" x="6965.05" y="3705.58" type="priority"/>
    <node id="1243175671#0-AddedOnRampNode" x="4512.41" y="3144.98" type="priority"/>
    <node id="1249036868" x="7346.56" y="3904.90" type="priority"/>
    <node id="1254108413" x="3236.89" y="3749.19" type="priority"/>
    <node id="1262449003" x="5266.34" y="8766.29" type="priority"/>
    <node id="1262462083" x="5541.64" y="920.69" type="priority"/>
    <node id="1262462088" x="5559.28" y="901.38" type="priority"/>
    <node id="12633617082" x="7919.22" y="6334.38" type="priority"/>
    <node id="12697308481" x="6001.22" y="5600.48" type="priority"/>
    <node id="12697308491" x="5938.33" y="5688.20" type="priority"/>
    <node id="12697308553" x="5950.48" y="5660.65" type="priority"/>
    <node id="12705640696" x="6415.04" y="5089.90" type="priority"/>
    <node id="12708195444" x="6444.01" y="5038.39" type="priority"/>
    <node id="12737236396" x="8795.16" y="7016.35" type="priority"/>
    <node id="12737236399" x="8914.40" y="7036.88" type="dead_end"/>
    <node id="12737277501" x="8819.84" y="7004.50" type="priority"/>
    <node id="12737277502" x="8879.24" y="7045.41" type="priority"/>
    <node id="12742190904" x="7114.41" y="5505.68" type="traffic_light" tl="12742190904" tlType="actuated"/>
    <node id="1279784116" x="5076.65" y="5503.73" type="traffic_light" tl="joinedS_1279784116_765623481" tlType="actuated"/>
    <node id="1279789782" x="2511.40" y="6940.01" type="priority"/>
    <node id="12800805713" x="8243.03" y="6706.22" type="priority"/>
    <node id="12800805714" x="8183.92" y="6638.67" type="priority"/>
    <node id="12800805722" x="8326.86" y="6758.37" type="priority"/>
    <node id="1280771311" x="5115.45" y="8765.19" type="priority"/>
    <node id="1282591158" x="5656.12" y="8861.04" type="dead_end"/>
    <node id="12881470861" x="7978.96" y="6398.56" type="priority"/>
    <node id="12881470862" x="8153.43" y="6571.73" type="priority"/>
    <node id="12881470863" x="8129.04" y="6542.77" type="priority"/>
    <node id="12881470873" x="8103.20" y="6544.16" type="priority"/>
    <node id="12881470882" x="8067.17" y="6458.48" type="priority"/>
    <node id="1288315317" x="2244.89" y="1918.62" type="traffic_light" tl="1288315317" tlType="actuated"/>
    <node id="1291083702" x="3646.11" y="4224.12" type="priority"/>
    <node id="1291083709" x="3683.82" y="4373.71" type="priority"/>
    <node id="1291728482" x="3649.04" y="4290.91" type="priority"/>
    <node id="12954663982" x="8128.01" y="6541.56" type="traffic_light" tl="12954663982" tlType="actuated"/>
    <node id="12964188244" x="8817.05" y="3708.50" type="priority"/>
    <node id="12964188258" x="8852.05" y="3695.71" type="priority"/>
    <node id="1299996995" x="3733.70" y="3573.18" type="priority"/>
    <node id="13031294079" x="5602.65" y="4953.96" type="priority"/>
    <node id="13031294081" x="5573.99" y="5028.74" type="priority"/>
    <node id="13031341036" x="1785.68" y="4590.22" type="priority"/>
    <node id="13031348847" x="1469.37" y="5415.11" type="priority"/>
    <node id="13031373228" x="5729.69" y="4724.64" type="priority"/>
    <node id="13049800828" x="7276.48" y="5629.38" type="priority"/>
    <node id="13049800856" x="7709.84" y="6071.26" type="priority"/>
    <node id="1305081893-AddedOffRampNode" x="7901.80" y="1580.43" type="priority"/>
    <node id="130524388-AddedOffRampNode" x="2994.75" y="462.64" type="priority"/>
    <node id="13076312134" x="7694.23" y="7619.97" type="priority"/>
    <node id="13076312140" x="7518.24" y="7577.17" type="priority"/>
    <node id="13076312141" x="7486.64" y="7830.34" type="priority"/>
    <node id="13078506832" x="8050.89" y="7691.22" type="priority"/>
    <node id="13078506895" x="8258.83" y="7768.20" type="priority"/>
    <node id="13138176509" x="6472.38" y="5102.09" type="traffic_light" tl="joinedS_13138176509_1505624251_4099250407_746302930" tlType="actuated" controlledInner="407903968"/>
    <node id="13138176514" x="6598.80" y="5165.91" type="priority"/>
    <node id="13138176544" x="7136.51" y="5540.58" type="priority"/>
    <node id="131595856#1-AddedOnRampNode" x="8411.96" y="4346.12" type="priority"/>
    <node id="1324701279" x="3032.58" y="3513.11" type="priority"/>
    <node id="1324701281" x="3089.72" y="3505.22" type="priority"/>
    <node id="1324701282" x="3094.64" y="3527.31" type="priority"/>
    <node id="1324701283" x="3046.19" y="3549.91" type="priority"/>
    <node id="1324701286" x="3049.86" y="3493.66" type="traffic_light" tl="joinedS_1324701286_1324701288_205479306" tlType="actuated" controlledInner="117621852#0"/>
    <node id="1324701287" x="3094.96" y="3522.90" type="priority"/>
    <node id="1324701288" x="3031.61" y="3528.56" type="traffic_light" tl="joinedS_1324701286_1324701288_205479306" tlType="actuated" controlledInner="117621852#0"/>
    <node id="1325751621" x="3764.25" y="3664.28" type="priority"/>
    <node id="1326316698-AddedOnRampNode" x="8274.40" y="5147.22" type="priority"/>
    <node id="1330749273" x="6833.59" y="2758.35" type="priority"/>
    <node id="1332199424" x="5359.32" y="395.02" type="priority"/>
    <node id="1332199425" x="5388.01" y="393.75" type="priority"/>
    <node id="1348991718" x="2535.38" y="8070.46" type="priority"/>
    <node id="1349642421" x="5363.45" y="6283.48" type="priority"/>
    <node id="1361035508" x="6387.66" y="4542.10" type="priority"/>
    <node id="1361508406" x="8877.50" y="3677.21" type="priority"/>
    <node id="1361551535" x="8918.91" y="3610.34" type="priority"/>
    <node id="1362334312" x="1147.63" y="8220.46" type="priority"/>
    <node id="1401183198" x="2547.32" y="8090.71" type="priority"/>
    <node id="1401183209" x="2505.66" y="8115.37" type="priority"/>
    <node id="1409949861" x="1729.17" y="4681.85" type="priority"/>
    <node id="1409949913" x="1552.51" y="5093.99" type="traffic_light" tl="joinedS_1409949913_205367012_788758319" tlType="actuated" controlledInner="338944243#0 67332829#0"/>
    <node id="1409966725" x="1484.30" y="5432.29" type="traffic_light" tl="1409966725" tlType="actuated"/>
    <node id="1422881232-AddedOffRampNode" x="7494.06" y="7769.35" type="priority"/>
    <node id="1431461058" x="5845.02" y="6789.38" type="traffic_light" tl="joinedS_1431461058_307843846_cluster_731074968_771670231" tlType="actuated"/>
    <node id="1436505025" x="3139.47" y="1881.51" type="priority"/>
    <node id="1437301909" x="3634.80" y="1986.39" type="priority"/>
    <node id="1437303515" x="3052.27" y="1974.26" type="priority"/>
    <node id="1437456924" x="2463.28" y="2919.69" type="priority"/>
    <node id="1454751994" x="8650.38" y="3831.52" type="priority"/>
    <node id="145943310-AddedOnRampNode" x="3007.50" y="463.89" type="priority"/>
    <node id="1486028918" x="6456.59" y="4948.92" type="priority"/>
    <node id="1486028920" x="6382.71" y="4410.20" type="priority"/>
    <node id="1486028921" x="6397.10" y="4540.51" type="priority"/>
    <node id="1486028925" x="6374.28" y="4413.43" type="priority"/>
    <node id="1490231787" x="4360.35" y="2239.62" type="priority"/>
    <node id="1505622591" x="6498.32" y="5081.95" type="priority"/>
    <node id="1505624241" x="6484.71" y="5068.31" type="priority"/>
    <node id="1505624247" x="6424.79" y="5102.32" type="priority"/>
    <node id="1505624248" x="6412.68" y="5066.20" type="priority"/>
    <node id="1505624249" x="6447.28" y="5110.97" type="priority"/>
    <node id="1505624251" x="6473.83" y="5047.74" type="traffic_light" tl="joinedS_13138176509_1505624251_4099250407_746302930" tlType="actuated" controlledInner="407903968"/>
    <node id="1505624253" x="6454.70" y="5038.56" type="priority"/>
    <node id="1505626336" x="6433.12" y="4432.34" type="priority"/>
    <node id="1547344537" x="5094.39" y="5497.95" type="priority"/>
    <node id="1547344541" x="5135.52" y="5475.75" type="priority"/>
    <node id="1547572702" x="3779.58" y="3559.18" type="priority"/>
    <node id="1567789617" x="1444.70" y="6892.86" type="priority"/>
    <node id="1606312057" x="5778.39" y="2739.76" type="traffic_light" tl="joinedS_1606312057_304502135_332566824_582633156" tlType="actuated"/>
    <node id="1671468871" x="3064.83" y="7371.97" type="priority"/>
    <node id="1830618017" x="1665.04" y="322.79" type="dead_end"/>
    <node id="1830618019" x="1571.96" y="420.96" type="priority"/>
    <node id="192021046" x="2357.89" y="5406.76" type="traffic_light" tl="192021046" tlType="actuated"/>
    <node id="192021712" x="2580.73" y="5421.14" type="priority"/>
    <node id="192021715" x="2832.56" y="5402.22" type="priority"/>
    <node id="1935807073" x="3679.41" y="3602.43" type="traffic_light" tl="1935807073" tlType="actuated"/>
    <node id="1936801752" x="5969.74" y="5520.60" type="priority"/>
    <node id="1937187745" x="6863.70" y="7226.49" type="traffic_light" tl="1937187745" tlType="actuated"/>
    <node id="193803703#0-AddedOffRampNode" x="249.68" y="3423.10" type="priority"/>
    <node id="1941502708" x="8035.68" y="6356.71" type="priority"/>
    <node id="1941502718" x="8064.66" y="6430.97" type="priority"/>
    <node id="1944134944" x="1175.00" y="630.52" type="priority"/>
    <node id="1944134952" x="1519.80" y="764.32" type="priority"/>
    <node id="1944134959" x="1071.59" y="899.65" type="priority"/>
    <node id="1944134966" x="379.70" y="1671.21" type="priority"/>
    <node id="1944134999" x="1723.36" y="8117.15" type="priority"/>
    <node id="1944135000" x="1690.09" y="8123.28" type="priority"/>
    <node id="1944135014" x="2071.51" y="8319.27" type="priority"/>
    <node id="1944135017" x="802.84" y="8339.80" type="dead_end"/>
    <node id="194702023-AddedOffRampNode" x="8217.78" y="3557.11" type="priority"/>
    <node id="194702023-AddedOnRampNode" x="8216.64" y="3553.11" type="priority"/>
    <node id="194702024-AddedOnRampNode" x="8207.20" y="3586.39" type="priority"/>
    <node id="1957097238" x="5714.75" y="4682.86" type="priority"/>
    <node id="1957097240" x="5608.24" y="4680.83" type="priority"/>
    <node id="1958571806" x="7586.49" y="6452.41" type="right_before_left"/>
    <node id="195966410" x="3151.73" y="5429.79" type="right_before_left"/>
    <node id="195968314" x="2943.43" y="5381.99" type="priority"/>
    <node id="196085026" x="2728.63" y="5417.63" type="priority"/>
    <node id="196358552#0-AddedOffRampNode" x="8390.74" y="4850.27" type="priority"/>
    <node id="1965730406" x="2414.54" y="6952.78" type="priority"/>
    <node id="1968780510" x="7950.92" y="6335.08" type="priority"/>
    <node id="19783281#1-AddedOnRampNode" x="6499.60" y="260.21" type="dead_end"/>
    <node id="19784202#0-AddedOffRampNode" x="7622.60" y="7405.79" type="priority"/>
    <node id="197992533" x="2457.03" y="5520.63" type="priority"/>
    <node id="197992534" x="2440.60" y="5482.17" type="priority"/>
    <node id="197992538" x="2448.03" y="5412.32" type="right_before_left"/>
    <node id="197992646" x="2362.61" y="5508.67" type="priority"/>
    <node id="197992663" x="2214.80" y="5418.18" type="priority"/>
    <node id="197992667" x="2301.85" y="5408.22" type="priority"/>
    <node id="197992671" x="2323.72" y="5517.14" type="priority"/>
    <node id="197992682" x="1922.41" y="5619.43" type="priority"/>
    <node id="197992688" x="2053.29" y="5604.62" type="dead_end"/>
    <node id="197992806" x="1902.81" y="5461.22" type="priority"/>
    <node id="198281510" x="1710.02" y="5494.28" type="priority"/>
    <node id="198285118" x="1620.29" y="5487.19" type="traffic_light" tl="GS_198285118" tlType="actuated"/>
    <node id="198285861" x="1830.03" y="4542.43" type="traffic_light" tl="198285861" tlType="actuated"/>
    <node id="199365911" x="2054.49" y="4288.50" type="priority"/>
    <node id="199365972" x="2146.35" y="4185.43" type="priority"/>
    <node id="199366174" x="2234.73" y="4086.83" type="priority"/>
    <node id="2007184640" x="5842.18" y="672.34" type="priority"/>
    <node id="2007184644" x="5846.05" y="652.32" type="priority"/>
    <node id="2007184645" x="5822.40" y="681.89" type="priority"/>
    <node id="2007184656" x="5799.98" y="654.07" type="priority"/>
    <node id="2007184659" x="5809.13" y="639.34" type="priority"/>
    <node id="2007184661" x="5808.62" y="676.84" type="priority"/>
    <node id="2007187497" x="4626.10" y="313.01" type="priority"/>
    <node id="2010401871" x="6487.01" y="945.87" type="traffic_light" tl="2010401871" tlType="actuated"/>
    <node id="201392068" x="1566.87" y="5480.24" type="priority"/>
    <node id="201703726" x="3141.61" y="3809.36" type="priority"/>
    <node id="201703733" x="3129.94" y="3773.94" type="priority"/>
    <node id="2017065047" x="1463.66" y="2729.11" type="traffic_light" tl="2017065047" tlType="actuated"/>
    <node id="2017065052" x="1416.18" y="2769.53" type="priority"/>
    <node id="2017065056" x="1403.48" y="2832.28" type="traffic_light" tl="2017065056" tlType="actuated"/>
    <node id="2017108213" x="1471.23" y="2464.43" type="priority"/>
    <node id="2017108215" x="1436.96" y="2470.52" type="priority"/>
    <node id="2040096770" x="6916.30" y="7239.00" type="priority"/>
    <node id="2040121757" x="7514.24" y="7561.09" type="priority"/>
    <node id="2040594552" x="7570.96" y="7516.82" type="priority"/>
    <node id="205331580" x="3916.01" y="6220.18" type="traffic_light" tl="205331580" tlType="actuated"/>
    <node id="205331581" x="3975.41" y="6286.01" type="priority"/>
    <node id="205331583" x="4131.82" y="6493.86" type="priority"/>
    <node id="205331584" x="4179.01" y="6555.93" type="traffic_light" tl="205331584" tlType="actuated"/>
    <node id="205331589" x="4344.34" y="6773.68" type="priority"/>
    <node id="205331593" x="4604.95" y="7116.75" type="priority"/>
    <node id="205331594" x="4637.25" y="7186.19" type="priority"/>
    <node id="205331597" x="4665.92" y="7166.80" type="priority"/>
    <node id="205335874" x="3940.14" y="6062.74" type="traffic_light" tl="205335874" tlType="actuated"/>
    <node id="205335875" x="4140.52" y="6216.31" type="traffic_light" tl="205335875" tlType="actuated"/>
    <node id="205335876" x="4381.07" y="6404.10" type="traffic_light" tl="205335876" tlType="actuated"/>
    <node id="205335880" x="4521.19" y="6498.74" type="traffic_light" tl="205335880" tlType="actuated"/>
    <node id="205335882" x="4661.48" y="6591.62" type="priority"/>
    <node id="205335885" x="4854.90" y="6664.79" type="priority"/>
    <node id="205335888" x="5031.53" y="6719.89" type="traffic_light" tl="205335888" tlType="actuated"/>
    <node id="205335891" x="5116.13" y="6759.26" type="priority"/>
    <node id="205335894" x="5207.51" y="6801.77" type="traffic_light" tl="205335894" tlType="actuated"/>
    <node id="205339042" x="3780.10" y="6336.30" type="priority"/>
    <node id="205339044" x="3640.67" y="6410.14" type="priority"/>
    <node id="205339047" x="3578.71" y="6467.34" type="traffic_light" tl="205339047" tlType="actuated"/>
    <node id="205339052" x="3442.93" y="6704.65" type="traffic_light" tl="GS_205339052" tlType="actuated"/>
    <node id="205339057" x="3246.90" y="6849.01" type="priority"/>
    <node id="205339058" x="3212.62" y="6861.13" type="traffic_light" tl="205339058" tlType="actuated"/>
    <node id="205339061" x="3075.27" y="6855.26" type="traffic_light" tl="GS_205339061" tlType="actuated"/>
    <node id="205341981" x="2789.88" y="6891.85" type="traffic_light" tl="205341981" tlType="actuated"/>
    <node id="205341987" x="2412.92" y="6959.65" type="priority"/>
    <node id="205342672" x="2819.54" y="7688.79" type="priority"/>
    <node id="205342674" x="2856.22" y="7750.70" type="priority"/>
    <node id="205342676" x="3069.38" y="8112.85" type="priority"/>
    <node id="205343316" x="3124.65" y="8258.13" type="priority"/>
    <node id="205343319" x="3159.28" y="8238.76" type="priority"/>
    <node id="205343322" x="3213.65" y="8267.09" type="priority"/>
    <node id="205343326" x="3201.72" y="8331.66" type="priority"/>
    <node id="205343329" x="3151.11" y="8343.13" type="traffic_light" tl="GS_205343329" tlType="actuated"/>
    <node id="205343332" x="3121.88" y="8321.76" type="priority"/>
    <node id="205345602" x="2372.35" y="6965.55" type="traffic_light" tl="joinedS_205345602_205346124_205346125_cluster_205346123_244064936_244064939_813265937" tlType="actuated" controlledInner="22747511 297806874"/>
    <node id="205346122" x="2361.91" y="6950.57" type="priority"/>
    <node id="205346124" x="2357.23" y="6897.65" type="traffic_light" tl="joinedS_205345602_205346124_205346125_cluster_205346123_244064936_244064939_813265937" tlType="actuated" controlledInner="22747511 297806874"/>
    <node id="205346125" x="2369.58" y="6889.68" type="traffic_light" tl="joinedS_205345602_205346124_205346125_cluster_205346123_244064936_244064939_813265937" tlType="actuated" controlledInner="22747511 297806874"/>
    <node id="205348556" x="1515.09" y="5680.28" type="priority"/>
    <node id="205348559" x="1607.26" y="5843.01" type="priority"/>
    <node id="205350423" x="1466.26" y="5468.55" type="priority"/>
    <node id="205357865" x="1469.27" y="5454.44" type="priority"/>
    <node id="205365283" x="1016.54" y="5058.78" type="priority"/>
    <node id="205365285" x="1030.28" y="5060.36" type="priority"/>
    <node id="205365286" x="1317.19" y="5098.74" type="priority"/>
    <node id="205365287" x="1410.13" y="5111.05" type="priority"/>
    <node id="205367012" x="1550.60" y="5103.29" type="traffic_light" tl="joinedS_1409949913_205367012_788758319" tlType="actuated" controlledInner="338944243#0 67332829#0"/>
    <node id="205367717" x="1568.37" y="5142.35" type="priority"/>
    <node id="205367839" x="1706.46" y="5153.39" type="priority"/>
    <node id="205367970" x="1584.02" y="5139.12" type="priority"/>
    <node id="205369509" x="1605.84" y="4931.97" type="priority"/>
    <node id="205375590" x="1765.87" y="4609.09" type="priority"/>
    <node id="205379521" x="2407.35" y="3814.90" type="priority"/>
    <node id="205379524" x="2487.01" y="3665.71" type="priority"/>
    <node id="205379895" x="2542.62" y="3549.45" type="priority"/>
    <node id="205381434" x="2699.22" y="3224.75" type="priority"/>
    <node id="205381438" x="2757.75" y="3103.61" type="priority"/>
    <node id="205475608" x="2789.21" y="3022.36" type="priority"/>
    <node id="205479306" x="3010.02" y="3470.97" type="traffic_light" tl="joinedS_1324701286_1324701288_205479306" tlType="actuated" controlledInner="117621852#0"/>
    <node id="205480184" x="3085.55" y="3631.33" type="priority"/>
    <node id="205481706" x="3192.65" y="3872.37" type="priority"/>
    <node id="205488004" x="3246.45" y="3990.37" type="priority"/>
    <node id="205488005" x="3257.76" y="4017.19" type="priority"/>
    <node id="205488007" x="3281.26" y="4076.32" type="priority"/>
    <node id="205488008" x="3339.85" y="4220.33" type="priority"/>
    <node id="205488009" x="3365.91" y="4284.34" type="priority"/>
    <node id="205488010" x="3390.79" y="4345.72" type="priority"/>
    <node id="205488011" x="3421.81" y="4414.84" type="traffic_light" tl="205488011" tlType="actuated"/>
    <node id="205488016" x="3601.35" y="4911.29" type="traffic_light" tl="205488016" tlType="actuated"/>
    <node id="205488018" x="3645.36" y="5151.98" type="priority"/>
    <node id="205488025" x="3654.59" y="5457.34" type="traffic_light" tl="205488025" tlType="actuated"/>
    <node id="205488026" x="3673.43" y="5548.51" type="traffic_light" tl="joinedS_205488026_205488027" tlType="actuated" controlledInner="-239663352 239663352"/>
    <node id="205488027" x="3678.59" y="5574.66" type="traffic_light" tl="joinedS_205488026_205488027" tlType="actuated" controlledInner="-239663352 239663352"/>
    <node id="205488028" x="3692.76" y="5617.24" type="priority"/>
    <node id="205488035" x="3898.39" y="5975.64" type="priority"/>
    <node id="2059722600" x="6214.14" y="6133.33" type="traffic_light" tl="2059722600" tlType="actuated"/>
    <node id="2059722615" x="6160.85" y="6145.83" type="priority"/>
    <node id="2059734832" x="2073.44" y="3600.13" type="traffic_light" tl="joinedS_2059734832_4625191712" tlType="actuated"/>
    <node id="2059734839" x="2172.58" y="3662.33" type="traffic_light" tl="2059734839" tlType="actuated"/>
    <node id="206120389" x="7598.67" y="7271.76" type="priority"/>
    <node id="206120407" x="8043.92" y="5867.58" type="priority"/>
    <node id="206120723" x="8364.52" y="4873.16" type="priority"/>
    <node id="206121203" x="8234.40" y="3682.62" type="priority"/>
    <node id="206122426" x="945.61" y="1063.18" type="priority"/>
    <node id="206122430" x="1475.46" y="506.66" type="dead_end"/>
    <node id="206127430" x="843.14" y="1196.84" type="priority"/>
    <node id="206128422" x="7527.99" y="7635.65" type="priority"/>
    <node id="206128434" x="7512.94" y="7759.78" type="priority"/>
    <node id="206128442" x="7300.74" y="8460.07" type="priority"/>
    <node id="206128450" x="7227.67" y="7449.36" type="priority"/>
    <node id="206128453" x="7326.20" y="7463.19" type="priority"/>
    <node id="206128456" x="7428.79" y="7416.40" type="priority"/>
    <node id="206128833" x="7500.01" y="7530.42" type="priority"/>
    <node id="206128840" x="7774.55" y="7607.86" type="priority"/>
    <node id="206128857" x="7631.92" y="7239.65" type="priority"/>
    <node id="206128909" x="8289.71" y="7777.58" type="priority"/>
    <node id="206128910" x="8175.46" y="7744.92" type="priority"/>
    <node id="206129048" x="7929.64" y="7671.98" type="priority"/>
    <node id="206129049" x="7813.00" y="7640.18" type="priority"/>
    <node id="206129428" x="7355.99" y="7507.41" type="priority"/>
    <node id="206129430" x="7201.29" y="7456.67" type="priority"/>
    <node id="206129601" x="7506.14" y="7670.08" type="priority"/>
    <node id="206129605" x="7529.59" y="7508.64" type="priority"/>
    <node id="206129766" x="7528.46" y="7477.18" type="priority"/>
    <node id="206129811" x="7634.72" y="7608.11" type="priority"/>
    <node id="206129932" x="7554.07" y="7582.61" type="priority"/>
    <node id="206130230" x="7493.02" y="7907.93" type="priority"/>
    <node id="206130337" x="8240.99" y="7745.05" type="priority"/>
    <node id="206130342" x="8899.87" y="8033.81" type="dead_end"/>
    <node id="206131130" x="406.12" y="8328.53" type="dead_end"/>
    <node id="206131132" x="1358.68" y="8317.12" type="priority"/>
    <node id="206131133" x="2023.20" y="8305.00" type="priority"/>
    <node id="206131154" x="2395.29" y="8299.36" type="priority"/>
    <node id="206131369" x="3674.29" y="8276.60" type="priority"/>
    <node id="206131371" x="3730.83" y="8266.11" type="priority"/>