<?xml version="1.0" ?>
<routes>
    <vType id="defaultCar" type="passenger" accel="2.6" decel="4.5" sigma="0.5" length="5" minGap="2.5" maxSpeed="70" lcMode="512"/>
    <vehicle id="5914" depart="0.0" type="defaultCar">
        <route edges="428024504 1284948983 428538530#0 428538528#0 57732272#0 428004006#0 1227573852 428004008 1422881232 1422881232-AddedOffRampEdge 19784287 193495820#1 428004909#0 428004907#0 28036928#0 1086372864 1086372860#0 761301518 60045938#0 -60045936#2 186526646#0 60045916 60045946"/>
    </vehicle>
    <vehicle id="349" depart="0.31" type="defaultCar">
        <route edges="1108873914#0 908827587 28355659#1 427558607 427558606 893655082 238190574#0 339757000 -238191820 -238190573#1 -293005690 -238758034 -293005693#1 -448768999 -293005699 -293005702 -238193545#2 -293005705#2 273443370#0 239077129#0 273443372 639334645#0 639334645#1 239205805 135737407 231901486#0 239077124#0 370312049#0 561004983 370210016 561004984#0 -370210013 -370210012#2 -30183912#3 30183912#2"/>
    </vehicle>
    <vehicle id="1508" depart="0.61" type="defaultCar">
        <route edges="428004906#0 428004906#3 61912589#0 61912592#0 428004905#0 1165154434 1323409159 28089580#0 27880152 1022485710 1167340936 1167340937 1167340935 1022485708 238831817 238831818 28338835#0 -1160122274 238580264#0 332163727#0 332163727#1 23136084#0 40855741#0 389740896 28036266#0 28527905#0 240196971 1172849476"/>
    </vehicle>
    <vehicle id="5654" depart="0.92" type="defaultCar">
        <route edges="273443372 639334645#0 639334645#1 239205805 135737407 231901486#0 57938823#0 22744197#7 22744197#8 22744197#11 22744215#0 1044163468#1 57936000#0 334892161#0 1253017332 1253017328 27640373#0 313014282#0 -334892181#3 -690750125#4 -335221276#5 -207307419#1 892407214 58993471#0 239663350#0 444274685#0 28089431#0 893911174 -444330611#5 804856962#1 31564907#0 976270091 28327507#0 331357861#0"/>
    </vehicle>
    <vehicle id="1038" depart="1.23" type="defaultCar">
        <route edges="142501835#0 142501835#2 308124413 61912585#0 725435893 382764725 330962474#0 641189444 61912576#0 638990003 27729604#0 137264603#0 658373688#0 658373688#1 658373687#1 658373687#2 658373690#0"/>
    </vehicle>
    <vehicle id="2471" depart="2.15" type="defaultCar">
        <route edges="19747865 19747830 265723207#0 19748167#0 356613144 338944243#0 338944243#1 238193503#0 19748798#0 1418049070 1160125534#0 331354694 329159952#0 365959210 365959170#0 365959170#4 69986967 630774011#0 239209581 195567978#0 195567980 22744074#0 117622846 640746720 638513792#0 117621847 401681806#0 640325984 69978178 892407203#0 69978180 285587771#0 312982848 19753489#0 -237277457 -237277455 -510585241#1 -510585239 -237277458 -237277456 -237277454 -508274046 -28370897 -508362482#1 -508362483 -310425662 -58993470#2 892407215#0 23646760#0 58993469#0 444273625#0 207307419#0 335221276#0 690750125#0 334892181#0 332028048#0 142501837#0 224779526#0 334892178#0 142501835#0 142501835#2 308124413 40409869#0 36129954#5 334892173"/>
    </vehicle>
    <vehicle id="3418" depart="2.46" type="defaultCar">
        <route edges="-1368388731#1 -1368388384 -79409355 -725693398#2 725693398#0 79409355 1368388384 1368388731#0 1368388731#2 293714102#0 293714099 293714100#0 293714103#0 45572008#0 1159157907 39658617 -447598474#1 30183912#0"/>
    </vehicle>
    <vehicle id="3106" depart="2.77" type="defaultCar">
        <route edges="-671543185#4 31291816 28604425#0 1298616760 31286612#0 74686648 53826243#0 452879654 894268683 19747779 1150103124 19747865 19747830 265723207#0 19748167#0 19748167#2 19747214#0 1418051803 69975866 67332791#0 329159953 807531848#0 807531848#1 69986942#0 69986854#0 69986859#0 638719623 69975869 19746250 189749339 22747504#0 22747513 283341693 24296358#0 285531479 285531478 283341696#0 283341696#1 283341696#2"/>
    </vehicle>
    <vehicle id="3086" depart="3.38" type="defaultCar">
        <route edges="-239209575#5 239209575#0 257962624 638513789 638998412 638998411 285587766 -676953637#3 -285587780 -31292649 -1056895529#1 -1056895529#0 -183454727#4 183454732 24297107#7 24297107#8 638998415 638998414#0 638998414#1 55461511#0 426635400#0 239209969#0 917979386"/>
    </vehicle>
    <vehicle id="6545" depart="3.99" type="defaultCar">
        <route edges="22743508#0 19746094#5 19746094#6 19746094#8 19746094#9 19746094#11 19784522#0 638719628#0 19746250 189749339 22747511 297806874 69986859#0 584651077#0 642986365 642986366#0 19753727#0 28110345#0 28110350 238191817#0 371705070#0 28370480 976270092#0 238190576#0 238190575 28327507#0 331357861#0 28370590 239663352 238758815 891841345#0 328816036 332019207#0 238832251 328816037 976891841#0 58993470#0 310425662 508362483 508362482#0 28370897 -22742149#1 -190113001 -494999660 -31321183 -335221249#1 -904300889#1 -334892162#3 -334892163#2 1253017331 1253017329 1253017332 313014284#0 1087973027#0 334892164#0 332962502#0 106935498 638509102#0 907498557 908360098 908360099 638513799 28117922#0 245694448#0 332962507 332962506 725424704#0 725693399#0 79409355 1368388384 1368388731#0 1368388731#2 293714102#0 293714099 293714100#0 293714103#0 45572008#0 1159157907 1157114728#0 1159157910 30181971 -367860869#2 -43648194 43648192#0 239075749#0"/>
    </vehicle>
    <vehicle id="5360" depart="4.3" type="defaultCar">
        <route edges="333969545#0 -333969545#1 -58989928#2 -640746447 28327480#0 157502404#1 157502404#2 48662509 640746450 157502423#0 157502423#1 157502423#2 78051506#0 194647698#0 194647698#3 22743508#0 19746094#5 19746094#6 19746094#8 19746094#9 19746094#11 19784522#0 638719628#0 19746250 189749339 22747504#0 22747513 283341693 283341694 22747501#0 24296350#0 -285531485 285531483 70971075#0 54725698#4 54725698#5 54725698#6 70971075#6 70971079#1 421001288#1 421001288#2 380099223#0 380099223#3"/>
    </vehicle>
    <vehicle id="4413" depart="4.61" type="defaultCar">
        <route edges="-334892162#3 334892162#0 122193817 249995065 334892165#0 238833202 639628945 45172175#0 183213746"/>
    </vehicle>
    <vehicle id="1454" depart="5.22" type="defaultCar">
        <route edges="141362710#0 1324488875 1324488874 638713846#0 330962478 28338862 1165154434 1323409159 28089580#0 27880152 1022485710 1167340936 1167340937 1167340935 1022485708 238831817 238831818 27880187#0 766164300#0 375766977#0 375766978#0 238190567 27879591#0 157504763 371700346 642986367 157504764 644804912 642986368#0 642109717 371700344#0 67072514 893655079 27879623#0 27879623#1 238191814#0 67072538#0 27879646 638719628#0 19746250 189749339 22747504#0 22747513 283341693 24296358#0 285531479"/>
    </vehicle>
    <vehicle id="5265" depart="6.45" type="defaultCar">
        <route edges="-58989928#2 -640746447 28327480#0 157502404#1 157502404#2 48662509 640746450 157502423#0 157502423#1 157502423#2 78051506#0 194647698#0 194647698#3 22743508#0 19746094#5 19746094#6 19746094#8 19746094#9 19746094#11 19784522#0 638719628#0 19746250 189749339 22747504#0 22747513 283341693 283341694 22747501#0 24296350#0 -285531485 285531483 70971075#0 54725698#4 54725698#5 54725698#6 54725698#7 70971061#0 54725699#2"/>
    </vehicle>
    <vehicle id="5457" depart="7.37" type="defaultCar">
        <route edges="807531848#1 69986942#0 69986854#0 69986859#0 638719623 69975869 19746250 189749339 22747504#0 22747513 283341693 283341694 22747501#0 24296350#0"/>
    </vehicle>
    <vehicle id="4038" depart="7.68" type="defaultCar">
        <route edges="395554559#0 395554561 77663859#0 77663859#1 590076247 239209575#0 257962624 638513789 638998412 638998411 285587766 -676953637#3 -285587780 -31292649 -395554572#1 -395554571 -197857277#1 -395554565 -395554563 -395554560 -395554559#1 -395554557 -395554556 -395554555 130542675 396962116#0 396962116#2 28605012#1 285587762#0 217651953#0 28354837 332101608 332101606#0 332101605#0 293005705#0 238193545#0 293005702 293005699 238191822 293005693#0 238758034 293005690 238190573#0 238191820 1108873914#0 908827587 28355659#1 427558607 427558606 36740360 207283319 893655081 893655084 893655086#0 893655086#1 441631548 73037085 73037085-AddedOffRampEdge 36356441#0 36356441#1 73037083#2 73037083#3 73037083#4 639334630#0 639334630#1 639334630#2 639334628#0 36356446 83134393 427558558"/>
    </vehicle>
    <vehicle id="6661" depart="7.99" type="defaultCar">
        <route edges="19784533#0 638719629 23136009#0 192972962#0 238191811#0 67075444#0 67075444#1 28110350 238191817#0 371705070#0 28370480 976270092#0 238190576#0 238190575 28327507#0 331357861#0 28370590 239663352 238758815 891841345#0 328816036 332019207#0 238832251 328816037 976891841#0 58993470#0 310425662 508362483 508362482#0 28370897 -22742149#1 -190113001 -494999660 -31321183 -335221249#1 -904300889#1 -334892162#3 -334892163#2 1253017331 1253017329 1253017332 313014284#0 1087973027#0 334892164#0 332962502#0 106935498 638509102#0 907498557 908360098 908360099 638513799 28117922#0 245694448#0 332962507 332962506 725424704#0 725693399#0 -238833966 -387205569 638715674#0 638715674#1 638715674#2 638712300 638715673 639623362 39990752#0"/>
    </vehicle>
    <vehicle id="4214" depart="8.6" type="defaultCar">
        <route edges="-365959170#3 -890744308 -329159952#1 -893655088#2 331354694 329159952#0 365959210 365959170#0 365959170#4 69986967 630774011#0 239209581 195567978#0 195567980 238866112#0 238866110 23074686#0 640747570 285587762#0 217651953#0 28354837 332101608 332101606#0 332101605#0 273443371#0 54617134#0 309766098 130420753 -648155257 130524181 639334647"/>
    </vehicle>
    <vehicle id="4225" depart="8.91" type="defaultCar">
        <route edges="-329159952#1 -893655088#2 331354694 329159952#0 365959210 365959170#0 365959170#4 69986967 630774011#0 239209581 195567978#0 195567980 22744074#0 117622846 640746720 638513792#0 117621847 401681806#0 640325984 69978178 892407203#0 69978180 285587771#0 312982848 19753489#0 -237277457 -237277455 -510585241#1 -510585239 -237277458 -237277456 -237277454 -508274046 -28370897 -508362482#1 -508362483 -310425662 -58993470#2 892407215#0 23646760#0 58993469#0 444273625#0 207307419#0 335221276#0 690750124#0 -761149064#2 761149063 330962470#1 638509106 638713849 460902384 61278262#0 415822735 638713847 330962487#1 330962487#2 61278275 505332840#0 1323409167#0 141362710#0 1324488875 1324488874 638713846#0 330962478 428004906#0 428004906#3 61912589#0 61912577#0 61912577#2 330962456#0 1086372863#0 428004904 428004908#0 193493148#0 19784172 196522323 19784160 1284948987 1284948986 19783204 40695369 486567258 1092109661 196522320#0 1316470116#2 1364300472 1364300471#1 1092109666 1394593525 1391650918 1391650915#0 1391650915#1 1316470110#0 1409828553 1394593524#0 40963315#3-AddedOnRampEdge 40963315#3 196522319 19784202#0 19784202#0-AddedOffRampEdge 40949201 40949130 40949130-AddedOffRampEdge 40949142 -40949219"/>
    </vehicle>
    <vehicle id="1326" depart="9.22" type="defaultCar">
        <route edges="330962457#0 330962457#3 891040097#0 61912590 891040096#0 638713841#0 428004905#0 1165154434 1323409159 28089580#0 27880152 1022485710 1167340936 1167340937 1167340935 1022485708 238831817 238831818 27880187#0 766164300#0 375766977#0 375766978#0 238190567 27879591#0 157504763 371700346 642986367 157504764 644804912 642986368#0 642109717 371700344#0 67072514 893655079 27879623#0 27879623#1 238191814#0 67072538#0 27879646 638719628#0 19746250 189749339 22747504#0 22747513 283341693 24296358#0 285531479 285531478 283341696#0 283341696#1 283341696#2 183975106 285531482 1137958420 1137958424 31192965 31192842#2 31192842#3 31192842#4 31192993 453809098"/>
    </vehicle>
    <vehicle id="198" depart="9.52" type="defaultCar">
        <route edges="339757000 -238191820 -238190573#1 34754110 -238758032#1 53380859 53380843 543767398 543767400 40734487 665832096 53380861 39660008#4 39660008#5 39660008#6 39660008#1 32351957#0 370316236#0 1303420789#0 1303420787#0 200669135 639342650 40440041 639342649 639340284#0 641189446 43648193#0 43648194 367860869#0 43648195 27729734 1157114734#0 1157114735 1159157908 45572006#0 -293714103#2 -293714100#1 -293714099 -293714102#2 -1368388731#2 -1368388731#1 -1368388384 -79409355 -725693398#2 -236913290 -236912686 -236912684#2 -137265179 137265084 236912683 236912685#0 641189444 61912576#0 638990003 27729604#0 137264603#0 658373688#0 137264873 208421641#0 1429231584 1429231592 489423333 36743870#0 1316470113#0 1364300471#1 1092109666 1394593525 1391650918 1391650915#0 1391650915#1 1316470110#0 1409828553 1391650914 1391650919 1092109664 1391650912 183744457 1316470116#0 1316470116#2 208421636 658169978 186184933 1135499766#0 1420150928#0 1420150930#0"/>
    </vehicle>
    <vehicle id="5115" depart="9.83" type="defaultCar">
        <route edges="23126545 23126545-AddedOffRampEdge 23126546#0 23126546#3 23126546#4 81735377#0 81735377#1 638998417#1 28372796#0 24297107#0 24297107#1 24297107#2 24297107#3 24297107#4 28603713 183454727#0 1056895529#0 1056895529#1 -395554572#1 -395554571 -197857277#1 -395554565 -395554563 -395554560 -395554559#1 -395554557 -395554556 -395554555 130542675 396962116#0 396962116#2 28605012#1 285587762#0 392818866 329159949#0 396962122 396962123 117621852#0 117621847 401681806#0 640325984 69978178 892407203#0 69978180 285587771#0 312982848 19753489#0 -237277457 -237277455 -510585241#1 -510585239 -237277458 -237277456 -237277454 -508274046 -28370897 -508362482#1 -508362483 -310425662 -58993470#2 892407215#0 23646760#0 58993469#0 444273625#0 207307419#0 335221276#0 690750124#0 -761149064#2 761149063 330962470#1 638509106 638713849 460902384 61278262#0 415822735 638713847 330962487#1 330962487#2 61278275 505332840#0"/>
    </vehicle>
    <vehicle id="3699" depart="11.98" type="defaultCar">
        <route edges="-395554556 -395554555 130542675 396962116#0 396962116#2 28605012#1 285587762#0 217651953#0 28354837 332101608 332101606#0 332101605#0 293005705#0 238193545#0 293005702 293005699 238191822 293005693#0 238758034 -238758034 30245182#0 53380859 53380843 543767398 543767400 40734487 665832096 53380861 39660008#4 39660008#5 39660008#6 39660008#1 32351957#0 370316236#0 1303420789#0 1303420787#0 200669135 639342650 40440041 639342649 639340284#0 641189446 43648193#0 43648194 367860869#0 43648195 27729734 1157114734#0 1157114735 1159157908 45572006#0 -293714103#2 -293714100#1 -293714099 -293714102#2 -1368388731#2 -1368388731#1 -1368388384 -79409355 -238833966 -387205569 638715674#0 638715674#1 638715674#2 638712300 638715673 639623362 39990752#0 238327271#0 426442326 108985267#0"/>
    </vehicle>
    <vehicle id="404" depart="12.29" type="defaultCar">
        <route edges="238191822 293005693#0 238758034 -238758034 -293005693#1 -448768999 -293005699 -293005702 -238193545#2 -293005705#2 -135516567 54617143#0 28382658#1 28382658#5 278058876#0 -239075751#1 -370210019#2 -1105850727 -403459527 -1105853442 -195571137 -639334623 22744108 977498170 312982853 312982851 -28354664#1 -28354664#0 113880679#1 113880679#2 366175336#0 113880678#0 113880678#2 31321090 508282776#0 113880132 50001925#0 892407214 58993471#0 239663350#0 444274685#0 28089431#0 67162261#0 38622296 330962464#0 19804762#0 37530634 19804752 37565660#0 37532037#0 28028236 444272398#0 37565661#0 67377811 333557339#0 37568142 64237844 28028545 -28115702 28115702"/>
    </vehicle>
    <vehicle id="3325" depart="12.9" type="defaultCar">
        <route edges="24297098#0 31291816 -786019233 24297096#3 24297096#4 24297096#5 24297096#6 27757020#0 638513791#0 239209581 195567978#0 195567980 22744074#0 117622846 640746720 638513792#0 117621847 401681806#0 640325984 69978178 892407203#0 69978180 285587771#0 312982848 19753489#0 -237277457 -237277455 -510585241#1 -510585239 -237277458 -237277456 -237277454 -508274046 -28370897 -508362482#1 -508362483 -310425662 -58993470#2 892407215#0 23646760#0 58993469#0 444273625#0 207307419#0 335221276#0 690750124#0 -761149064#2 761149063 330962470#1 638509106 638713849 460902384 61278262#0 415822735 638713847 330962487#1 330962487#2 61278275 1324488876 638713837 330962489#0 428277353#0 -761145197 -67162264#5"/>
    </vehicle>
    <vehicle id="1478" depart="13.52" type="defaultCar">
        <route edges="141362710#0 1324488875 1324488874 638713846#0 330962478 28338862 1165154434 1323409159 638713845 638713844 1323409158 1323409164#0 61912578#0 638713837 330962489#0 330962489#1 330962494#1 415822721 1322975098#0 330962455#0 640325981 638509107 330962470#0 330962470#1 22744243#0 332028048#0 142501837#0 224779526#0 334892178#0 142501835#0 142501835#2 308124413 40409869#0 40409869#7 144724769 638509103 638509102#0 907498557 907498558 30183957 75110954#0 -75110949 292432770 75110955#0 45081684 1159157910 1157114729#0 27729734 45744237 45744238#0 1156001077 338374858#0 338374857#0 312982844 642982466"/>
    </vehicle>
    <vehicle id="6027" depart="14.13" type="defaultCar">
        <route edges="57727131 238830422#0 428024504 1284948983 428538530#0 428538528#0 57732272#0 428004006#0 1227573852 428004008 1422881232 1422881232-AddedOffRampEdge 19784287 193495820#1 428004909#0 428004907#0 28036928#0 57732280 1086372861#0 1086372858 -28035777#1 -28035776 -31720195#1 -1086372857#1 28035821 1086372856 640315078 640315080 -330962461#1 -31720196 -28089087#2 -1160122274 238580264#0 332163727#0 332163727#1 23136084#0 23136084#3 238829668 58989921#0 333969559 640315081#0 333969551 23136096#0 -333969545#1 -58989928#2 -640746447 28327480#0 157502404#1 157502404#2 48662509 640746450 157502423#0 157502423#1 157502423#2 78051506#0 194647698#0 194647698#3 22743508#0 19746094#5 19746094#6 19746094#8 311743589#0 311743593 311743584 55137657#1 55137657#2 55137657#3 761574722 55137625"/>
    </vehicle>
    <vehicle id="1448" depart="15.67" type="defaultCar">
        <route edges="193493148#0 19784172 196522323 193546110 193546108 1284948994 1284948991 1284948993 19784346#0 19784346#1 193495820#0 193495820#1 428004909#0 428004907#0 28036928#0 1086372864 1086372860#0 330962457#0 330962457#3 891040097#0 61912592#0 428004905#0 1165154434 1323409159 638713845 638713844 1323409158 1323409164#0 61912578#0 638713837 330962489#0 330962489#1 330962494#1 415822721 1322975098#0 330962455#0 640325981 638509107 330962470#0 330962470#1 22744243#0 -334892181#3 -690750125#4 -335221276#5 -207307419#1 31321098#0 -113880132 113880131#0 113880131#4 113880133 508284948#0 -366175336#1 -113880679#2 -113880679#1 -113880679#0 222105713 222873270#1 312982849 312982850 639334623 195571137 639334643#0 1105853441 1105850727 370210019#0 239075751#0 278058875#0 278058875#2 54617128#1 54617128#2-AddedOnRampEdge 54617128#2 403888828#0 332101606#0 332101605#0 293005705#0 238193545#0 293005702 293005699 238191822 293005693#0 238758034 293005690 238190573#0 238191820 1108873914#0 908827587 28355659#1 427558607 427558606 36740360 207283319 893655081 893655084 893655086#0 893655086#1 441631548 73037085 73037085-AddedOffRampEdge 36356441#0 36356441#1 73037083#2 73037083#3 73037083#4 639334630#0 639334630#1 639334630#2 639334628#0"/>
    </vehicle>
    <vehicle id="575" depart="15.98" type="defaultCar">
        <route edges="332101605#0 273443370#0 239077130#0 -135516567 -332101606#1 -332101608 -474640497 28354839#0 217651938#0 217651946#0 -474640490 238866118#0 -195567980 195567979#0 -474640489#1 -466158408 -69986967 -406948488 -365959170#3 -890744308 -329159952#1 -893655088#2 -1160125533 -1418049070 -639625555 -814351068#3 69978182#0 27551753 -19747258 780953379 1418051806 1418051803 69975866 67332791#0 329159953 807531848#0 807531848#1 69986942#0 69986854#0 69986859#0 638719623 69975869 19746250 189749339 22747504#0 22747513 283341693 283341694 22747501#0 24296350#0"/>
    </vehicle>
    <vehicle id="2579" depart="16.28" type="defaultCar">
        <route edges="-19747856 -19747779 19747779 1150103124 19747865 19747830 265723207#0 19748167#0 356613144 338944243#0 338944243#1 238193503#0 19748798#0 1418049070 1160125534#0 331354694 329159952#0 365959210 365959170#0 365959170#4 69986967 630774011#0 239209581 195567978#0 195567980 238866112#0 238866110 23074686#0 640747570 285587762#0 217651953#0 28354837 332101608 332101606#0 332101605#0 293005705#0 238193545#0 293005702 293005699 238191822 293005693#0 238758034 -238758034 30245182#0 53380859"/>
    </vehicle>
    <vehicle id="4927" depart="16.9" type="defaultCar">
        <route edges="239209969#0 81735349#0 81735359#0 81735359#1 28355087 28372383#0 309766098 130420752#0 -135516567 54617143#0 28382658#1 28382658#5 278058876#0 -239075751#1 -370210019#2 -1105850727 -403459527 -1105853442 -195571137 -639334623 22744108 977498170 312982853 312982851 -28354664#1 -28354664#0 113880679#1 113880679#2 366175336#0 113880678#0 113880678#2 31321090 508282776#0 113880132 50001925#0 207307419#0 335221276#0 690750124#0 -761149064#2 761149063 330962470#1 638509106 638713849 460902384 61278262#0 415822735 638713847 330962487#1 330962487#2 61278275 505332840#0 1323409167#0 141362710#0 1324488875 1324488874 638713846#0 330962478 428004906#0 428004906#3 61912589#0 61912577#0 61912577#2 330962456#0 1086372861#0 1086372858 -28035777#1 -28035776 -31720195#1 -1086372857#1 -61912607 -61912580#2 61912580#0"/>
    </vehicle>
    <vehicle id="3819" depart="17.51" type="defaultCar">
        <route edges="395554559#0 395554561 77663859#0 77663859#1 590076247 239209575#0 257962624 638513789 638998412 638998411 285587766 -676953637#3 -285587780 -31292649 -395554572#1 -395554571 -197857277#1 -395554565 -395554563 -395554560 -395554559#1 -395554557 -395554556 -395554555 130542675 396962116#0 396962116#2 28605012#1 285587762#0 392818866 329159949#0 396962122 396962123 117621852#0 117621847 401681806#0 640325984 69978178 892407203#0 69978180 285587771#0 312982848 19753489#0 -237277457 -237277455 -510585241#1 -510585239 -237277458 -237277456 -237277454 -508274046 -28370897 -508362482#1 -508362483 -310425662 -58993470#2 892407215#0 23646760#0 58993469#0 444273625#0 207307419#0 335221276#0 690750125#0 334892181#0 332028048#0 142501837#0 224779526#0 334892178#0 142501835#0 142501835#2 308124413 61912585#0 725435893 382764725 330962474#0 641189444 79517235#0 238833962#0 462932151#0 890675828#0 284964627#0 384980597 631109262#0 284964626#0 23121515"/>
    </vehicle>
    <vehicle id="5730" depart="18.13" type="defaultCar">
        <route edges="273443372 639334645#0 639334645#1 28382998#3 28383005 -28383004#1 36731255#0 370210017#0 57935998#0 1110456073 183213746 183213745 370210022#0 249995066#0 249995065 334892165#0"/>
    </vehicle>
    <vehicle id="1686" depart="18.74" type="defaultCar">
        <route edges="638719628#0 19746250 189749339 22747511 297806874 69986859#0 584651077#0 642986365 642986366#0 19753727#0 28110345#0 28110350 23135997#0 23135997#2 67075447#0 67075447#5 238190565#0 67072555#0 67072555#4 238191806#0 36245151 36245142"/>
    </vehicle>
    <vehicle id="3245" depart="19.36" type="defaultCar">
        <route edges="239209575#0 -239209575#5 -671543185#4 -590076249 403277399 24297096#5 28605074#0 130542673 396962121#2 396962116#0 396962116#2 28605012#1 285587762#0 217651953#0 28354837 332101608 332101606#0 332101605#0 293005705#0 238193545#0 293005702 293005699 238191822 293005693#0 238758034 293005690 238190573#0 238191820 1108873914#0 908827587 28355659#1 427558607 427558606 36740360 207283319 893655081 893655084 190112359"/>
    </vehicle>
    <vehicle id="1307" depart="19.66" type="defaultCar">
        <route edges="891040097#0 61912590 891040096#0 638713841#0 61912589#0 61912577#0 61912577#2 330962456#0 1086372861#0 57732282 384980595 61278252 330962457#3 61278276#0"/>
    </vehicle>
    <vehicle id="3485" depart="19.97" type="defaultCar">
        <route edges="1368388384 1368388731#0 -1368388731#1 -1368388384 -79409355 -725693398#2 725693398#0 -725693399#1 -725424704#1 -725424705 -332962507 -245694448#1 245694452 144724766#0 34760155#0 34760155#3 -308124413 -142501835#5 -142501835#1 -334892178#1 -224779526#2 -253802126 -332028048#1 27645114#0 638713849 460902384 61278262#0 415822735 638713847 330962487#1 330962487#2 61278275 505332840#0 1323409167#0 141362710#0 1324488875 1324488874 638713846#0 330962478 28338862 1165154434 1323409159 28089580#0 27880152 1022485710 1167340936 1167340937 1167340935 1022485708 238831817 238831818 28338835#0 -1160122274 238580264#0 332163727#0 332163727#1 23136084#0 23136084#3 36274560#0 36276481#2 36276481#3 36276481#4 36276481#0 34760698"/>
    </vehicle>
    <vehicle id="5258" depart="20.28" type="defaultCar">
        <route edges="-333969545#1 333969545#0 124717912#0 638988792 23136043 23136059#0 976891842 58989916#0 23136064 23136069#0 238580263 1160122273 31720196 330962461#0 28035742 1180080071 1180080072 28035767#0 31720195#0 28035776 28035777#0 278197973 61278252 330962457#3 891040097#0 61912592#0 428004905#0 1165154434 1323409159 638713845 638713844 1323409158 1323409164#0 61912578#0 638713837 330962489#0 330962489#1 330962494#1 415822721 1322975098#0 330962455#0 640325981 638509107 330962470#0 330962470#1 22744243#0 -334892181#3 -690750125#4 -335221276#5 -207307419#1 31321098#0 -113880132 113880131#0 113880131#4 113880133 508284948#0 -366175336#1 -113880679#2 -113880679#1 -113880679#0 222105713 222873270#1 312982849 312982850 639334623 195571137 639334643#0 1105853441 1105850727 370210019#0 239075751#0 278058875#0 278058875#2 54617128#1 54617128#2-AddedOnRampEdge 54617128#2 403888828#0 332101606#0 332101605#0 273443371#0 54617134#0 498064545#0 23126545 23126545-AddedOffRampEdge 23126546#0 23126546#3 23126546#4 81735377#0 81735377#1 638998417#1 28603449#0 81735377#7 55787650 81735356 257784931 257784933-AddedOnRampEdge 257784933 22744403 55787646#0 55787646#0-AddedOffRampEdge 55787646#1 318406089-AddedOnRampEdge 318406089 23126793 160725695 55787640#1 207328856 183975093 1092100505 207328854"/>
    </vehicle>
    <vehicle id="722" depart="20.59" type="defaultCar">
        <route edges="-207307419#1 50001920#1 893655093#0 53827956#0 761149066#0 893655091#0 761149063 330962470#1 22744243#0 332028048#0 142501837#0 224779526#0 334892178#0 142501835#0 142501835#2 308124413 61912585#0 725435893 382764725 330962474#0 641189444 61912576#0 638990003 27729604#0 137264603#0 658373688#0 137264873 208421641#0 1429231584 1429231592 489423333 36743870#0 1316470113#0 1317093533#0 1317093531 23125446#1-AddedOnRampEdge 23125446#1 23125446#2"/>
    </vehicle>
    <vehicle id="5003" depart="20.89" type="defaultCar">
        <route edges="239209969#0 81735349#0 81735359#0 81735359#1 28355087 28372383#0 309766098 130420752#0 -135516567 54617143#0 28382658#1 28382658#5 278058876#0 -239075751#1 -370210019#2 -1105850727 -403459527 -1105853442 -195571137 -639334623 22744108 977498170 312982853 312982851 -28354664#1 -28354664#0 113880679#1 113880679#2 366175336#0 113880678#0 113880678#2 31321090 508282776#0 113880132 50001925#0 50001920#1 893655092#0"/>
    </vehicle>
    <vehicle id="5443" depart="21.2" type="defaultCar">
        <route edges="67332791#0 329159953 1241215732#0 -69975866 1418051805 1418051804 30326489#0 160118790#0 -19747865 -19747856 -19747779 29110031 238758031#0 238758031#1 238758031#4 461867328#0 28604333 74686092 239210561#0 543015159#0 239210560 543015164#0 543015169 543015181 28604269#0 239210564#0 -239210557#1"/>
    </vehicle>
    <vehicle id="6688" depart="21.51" type="defaultCar">
        <route edges="19784533#0 638719629 23136009#0 192972962#0 238191811#0 67075444#0 67075444#1 28110350 238191817#0 371705070#0 28370480 976270092#0 238190576#0 238190575 28327507#0 331357861#0 28370590 239663352 238758815 891841345#0 328816036 332019207#0 238832251 328816037 976891841#0 58993470#0 310425662 508362483 508362482#0 28370897 -22742149#1 -190113001 -494999660 -31321183 -335221249#1 -904300889#1 -334892162#3 -334892163#2 1253017331 1253017329 1253017332 313014284#0 1087973027#0 334892164#0 332962502#0 106935498 638509102#0 907498557 908360098 908360099 638513799 28117922#0 245694448#0 332962507 332962506 725424704#0 725693399#0 79409355 1368388384 1368388731#0 1368388731#2 293714102#0 293714099 293714100#0 293714103#0 45572008#0 1159157907 1157114728#0 1159157910 30181971 -367860869#2 -43648194 43648192#0 427558759#0 639342649 639340284#0 -239075744#5 -370316233 -239075747#4 -561004978 -561004979#4 -561004980 -671778906#2 -36356418#4 -36356418#3 639340278 1110434750 561004981 1109164670#0 73037095-AddedOnRampEdge 73037095 23059424 185034451 207315525 1213659836 1305081897 1305081895"/>
    </vehicle>
    <vehicle id="6157" depart="21.81" type="defaultCar">
        <route edges="428024504 1284948983 428538530#0 428538528#0 57732272#0 428004006#0 1227573852 428004008 1422881232 1422881232-AddedOffRampEdge 19784287 193495820#1 428004909#0 428004907#0 28036928#0 57732280 1086372861#0 1086372858 -28035777#1 -28035776 -31720195#1 -1086372857#1 28035821 1086372856 640315078 640315080 -330962461#1 -31720196 -28089087#2 -1160122274 238580264#0 332163727#0 332163727#1 23136084#0 23136084#3 238829668 58989921#0 333969559 640315081#0 333969551 23136096#0 -333969545#1 -58989928#2 58989888 36245143 78051516#0 1252530422 78051507#0"/>
    </vehicle>
    <vehicle id="6694" depart="22.12" type="defaultCar">
        <route edges="19784533#0 638719629 23136009#0 192972962#0 238191811#0 67075444#0 67075444#1 28110350 238191817#0 371705070#0 28370480 976270092#0 238190576#0 238190575 28327507#0 331357861#0 28370590 239663352 238758815 891841345#0 328816036 332019207#0 238832251 328816037 976891841#0 58993470#0 310425662 508362483 508362482#0 28370897 -22742149#1 -190113001 -494999660 -31321183 -335221249#1 -904300889#1 -334892162#3 -334892163#2 1253017331 1253017329 1253017332 313014284#0 1087973027#0 334892164#0 332962502#0 106935498 638509102#0 907498557 907498558 30183957 75110954#0 -75110949 -447598475"/>
    </vehicle>
    <vehicle id="3102" depart="23.04" type="defaultCar">