<?xml version="1.0" encoding="UTF-8"?>

<!-- generated on 2025-07-15 14:05:23 by Eclipse SUMO netconvert Version 1.23.1
<netconvertConfiguration xmlns:xsi="http://www.w3.org/2001/XMLSchema-instance" xsi:noNamespaceSchemaLocation="http://sumo.dlr.de/xsd/netconvertConfiguration.xsd">

    <input>
        <sumo-net-file value="osm.net.xml.gz"/>
    </input>

    <output>
        <plain-output-prefix value="network"/>
        <output.street-names value="true"/>
    </output>

    <processing>
        <geometry.min-radius.fix.railways value="false"/>
        <geometry.avoid-overlap value="false"/>
        <geometry.max-grade.fix value="false"/>
        <offset.disable-normalization value="true"/>
        <lefthand value="0"/>
    </processing>

    <junctions>
        <no-turnarounds value="true"/>
        <junctions.corner-detail value="5"/>
        <junctions.limit-turn-speed value="5.50"/>
        <rectangular-lane-cut value="0"/>
    </junctions>

    <pedestrian>
        <walkingareas value="0"/>
    </pedestrian>

</netconvertConfiguration>
-->

<edges version="1.20" xmlns:xsi="http://www.w3.org/2001/XMLSchema-instance" xsi:noNamespaceSchemaLocation="http://sumo.dlr.de/xsd/edges_file.xsd">
    <location netOffset="-762363.65,-4134809.50" convBoundary="0.00,0.00,13653.09,12841.28" origBoundary="-6.035686,37.319337,-5.881397,37.435880" projParameter="+proj=utm +zone=29 +ellps=WGS84 +datum=WGS84 +units=m +no_defs"/>

    <edge id="-1000927079" from="696656636" to="696656647" name="Ronda de los Tejares" priority="10" type="highway.tertiary" numLanes="1" speed="22.22" shape="2046.90,6088.19 2024.01,6105.46 2024.40,6125.22 2024.89,6154.81 2025.75,6167.88 2028.17,6264.30 2028.50,6277.43" disallow="tram rail_urban rail rail_electric rail_fast ship container cable_car subway aircraft wheelchair scooter drone">
        <lane index="0">
            <param key="origId" value="1000927079 1370977118"/>
        </lane>
    </edge>
    <edge id="-1019254303" from="9400957294" to="307724768" name="Calle Pueblo Saharaui" priority="10" type="highway.tertiary" numLanes="1" speed="8.33" shape="5948.92,8638.19 5938.78,8629.87 5935.38,8627.08 5888.07,8588.27" disallow="tram rail_urban rail rail_electric rail_fast ship container cable_car subway aircraft wheelchair scooter drone">
        <lane index="0">
            <param key="origId" value="1019254303"/>
        </lane>
    </edge>
    <edge id="-1019254304" from="8294510092" to="9400957295" name="Calle Hespérides" priority="10" type="highway.tertiary" numLanes="1" speed="13.89" disallow="tram rail_urban rail rail_electric rail_fast ship container cable_car subway aircraft wheelchair scooter drone">
        <lane index="0">
            <param key="origId" value="1019254304"/>
        </lane>
    </edge>
    <edge id="-1044163467#1" from="244017590" to="332587943" name="Avenida Ramón y Cajal" priority="12" type="highway.primary" numLanes="2" speed="27.78" shape="5492.78,6194.66 5505.14,6190.69 5531.77,6182.02 5590.01,6163.25 5620.10,6153.78 5623.87,6152.59 5662.20,6139.74" disallow="tram rail_urban rail rail_electric rail_fast ship container cable_car subway aircraft wheelchair scooter drone">
        <lane index="0">
            <param key="origId" value="1044163467 1044163467 446860669 892407187"/>
        </lane>
        <lane index="1">
            <param key="origId" value="1044163467 1044163467 446860669 892407187"/>
        </lane>
    </edge>
    <edge id="-1056895529#0" from="2017065047" to="294602922" name="Calle Santa Fe" priority="12" type="highway.primary" numLanes="2" speed="27.78" disallow="tram rail_urban rail rail_electric rail_fast ship container cable_car subway aircraft wheelchair scooter drone">
        <lane index="0">
            <param key="origId" value="1056895529"/>
        </lane>
        <lane index="1">
            <param key="origId" value="1056895529"/>
        </lane>
    </edge>
    <edge id="-1056895529#1" from="314330614" to="2017065047" name="Calle Santa Fe" priority="12" type="highway.primary" numLanes="2" speed="27.78" shape="2936.64,5764.58 2947.78,5746.94 2955.31,5731.75 2959.69,5722.60" disallow="tram rail_urban rail rail_electric rail_fast ship container cable_car subway aircraft wheelchair scooter drone">
        <lane index="0">
            <param key="origId" value="1056895529"/>
        </lane>
        <lane index="1">
            <param key="origId" value="1056895529"/>
        </lane>
    </edge>
    <edge id="-1086372857#1" from="307843846" to="307846571" name="Calle Carretera de Carmona" priority="11" type="highway.secondary" numLanes="2" speed="27.78" shape="6436.75,9080.61 6433.60,9080.83 6432.63,9080.90" disallow="tram rail_urban rail rail_electric rail_fast ship container cable_car subway aircraft wheelchair scooter drone">
        <lane index="0">
            <param key="origId" value="1086372857"/>
        </lane>
        <lane index="1">
            <param key="origId" value="1086372857"/>
        </lane>
    </edge>
    <edge id="-1121908324#1" from="306100736" to="cluster_1279783691_306095697" name="Avenida Pablo Iglesias" priority="11" type="highway.secondary" numLanes="1" speed="27.78" shape="5333.16,8011.06 5334.09,8012.05 5345.06,8022.85 5513.48,8199.09 5521.32,8207.30 5524.40,8210.37 5526.28,8212.28" disallow="tram rail_urban rail rail_electric rail_fast ship container cable_car subway aircraft wheelchair scooter drone">
        <lane index="0">
            <param key="origId" value="1121908324 1121908324 1121908323 1121908323"/>
        </lane>
        <param key="origTo" value="1279783691"/>
    </edge>
    <edge id="-1121908324#5" from="870048436" to="306100736" name="Avenida Pablo Iglesias" priority="11" type="highway.secondary" numLanes="1" speed="27.78" shape="5174.94,7842.41 5176.01,7843.55 5180.01,7847.82 5269.26,7942.95 5279.50,7953.86 5326.45,8003.91 5333.16,8011.06" disallow="tram rail_urban rail rail_electric rail_fast ship container cable_car subway aircraft wheelchair scooter drone">
        <lane index="0">
            <param key="origId" value="1121908324"/>
        </lane>
    </edge>
    <edge id="-1137958420" from="10607189027" to="735343585" name="Calle Juan Bautista Muñoz" priority="10" type="highway.tertiary" numLanes="2" speed="13.89" shape="3255.11,9899.27 3260.78,9894.04 3326.77,9833.17 3362.60,9800.12 3419.28,9747.43 3446.55,9722.51 3459.67,9710.50 3474.97,9696.39 3490.73,9681.72 3493.34,9679.32" disallow="tram rail_urban rail rail_electric rail_fast ship container cable_car subway aircraft wheelchair scooter drone">
        <lane index="0">
            <param key="origId" value="1137958420 1137958437 285531482"/>
        </lane>
        <lane index="1">
            <param key="origId" value="1137958420 1137958437 285531482"/>
        </lane>
    </edge>
    <edge id="-1137958425" from="347098992" to="10607189027" name="Calle Juan Bautista Muñoz" priority="10" type="highway.tertiary" numLanes="2" speed="8.33" shape="3183.33,9965.55 3187.87,9961.78 3218.40,9933.89 3220.85,9931.56 3236.51,9916.74 3248.73,9905.15 3255.11,9899.27" disallow="tram rail_urban rail rail_electric rail_fast ship container cable_car subway aircraft wheelchair scooter drone">
        <lane index="0">
            <param key="origId" value="1137958425 1137958424"/>
        </lane>
        <lane index="1">
            <param key="origId" value="1137958425 1137958424"/>
        </lane>
    </edge>
    <edge id="-1138018269" from="688991181" to="cluster_619038969_688991218" name="Calle Américo Vespucio" priority="10" type="highway.tertiary" numLanes="2" speed="22.22" shape="2344.40,8636.54 2346.78,8649.47 2359.93,8720.75 2361.75,8729.77" disallow="tram rail_urban rail rail_electric rail_fast ship container cable_car subway aircraft wheelchair scooter drone">
        <lane index="0">
            <param key="origId" value="1138018269 700944779"/>
        </lane>
        <lane index="1">
            <param key="origId" value="1138018269 700944779"/>
        </lane>
        <param key="origTo" value="688991218"/>
    </edge>
    <edge id="-113880132" from="837182465" to="1291083709" name="Calle José María Moreno Galván" priority="11" type="highway.secondary" numLanes="2" speed="27.78" shape="4735.72,7251.41 4719.00,7195.65 4684.48,7081.79" disallow="tram rail_urban rail rail_electric rail_fast ship container cable_car subway aircraft wheelchair scooter drone">
        <lane index="0">
            <param key="origId" value="113880132"/>
        </lane>
        <lane index="1">
            <param key="origId" value="113880132"/>
        </lane>
    </edge>
    <edge id="-113880679#0" from="239937329" to="1325751621" name="Calle Juan de Mata Carriazo" priority="11" type="highway.secondary" numLanes="2" speed="27.78" shape="4710.04,6665.97 4711.45,6659.14 4713.60,6650.66 4717.80,6637.47 4748.76,6563.52 4756.93,6544.13 4766.44,6521.84" disallow="tram rail_urban rail rail_electric rail_fast ship container cable_car subway aircraft wheelchair scooter drone">
        <lane index="0">
            <param key="origId" value="113880679 28354664"/>
        </lane>
        <lane index="1">
            <param key="origId" value="113880679 28354664"/>
        </lane>
    </edge>
    <edge id="-113880679#1" from="2815526911" to="239937329" name="Calle Juan de Mata Carriazo" priority="11" type="highway.secondary" numLanes="2" speed="27.78" disallow="tram rail_urban rail rail_electric rail_fast ship container cable_car subway aircraft wheelchair scooter drone">
        <lane index="0">
            <param key="origId" value="113880679"/>
        </lane>
        <lane index="1">
            <param key="origId" value="113880679"/>
        </lane>
    </edge>
    <edge id="-113880679#2" from="239937500" to="2815526911" name="Calle Juan de Mata Carriazo" priority="11" type="highway.secondary" numLanes="2" speed="27.78" disallow="tram rail_urban rail rail_electric rail_fast ship container cable_car subway aircraft wheelchair scooter drone">
        <lane index="0">
            <param key="origId" value="113880679"/>
        </lane>
        <lane index="1">
            <param key="origId" value="113880679"/>
        </lane>
    </edge>
    <edge id="-1156001077" from="475004472" to="582633156" name="Avenida de Hytasa" priority="12" type="highway.primary" numLanes="2" speed="13.89" shape="6575.01,5703.68 6550.76,5722.29 6538.02,5732.08 6529.90,5738.29 6516.89,5748.03 6501.99,5759.63 6500.30,5760.92 6470.18,5783.94 6467.87,5785.70" disallow="tram rail_urban rail rail_electric rail_fast ship container cable_car subway aircraft wheelchair scooter drone">
        <lane index="0">
            <param key="origId" value="1156001077 1156001078 45744238"/>
        </lane>
        <lane index="1">
            <param key="origId" value="1156001077 1156001078 45744238"/>
        </lane>
    </edge>
    <edge id="-1160122274" from="306100790" to="249803657" name="Avenida Alcalde Manuel de Valle" priority="12" type="highway.primary" numLanes="3" speed="27.78" shape="5918.78,9081.66 5921.05,9097.72 5921.43,9101.14 5929.81,9147.04 5931.56,9158.79 5940.66,9214.29 5942.28,9224.19" disallow="tram rail_urban rail rail_electric rail_fast ship container cable_car subway aircraft wheelchair scooter drone">
        <lane index="0">
            <param key="origId" value="1160122274 238580265 238580263"/>
        </lane>
        <lane index="1">
            <param key="origId" value="1160122274 238580265 238580263"/>
        </lane>
        <lane index="2">
            <param key="origId" value="1160122274 238580265 238580263"/>
        </lane>
    </edge>
    <edge id="-117107052" from="746303098" to="728689687" name="Calle Antioquía" priority="10" type="highway.tertiary" numLanes="1" speed="22.22" disallow="tram rail_urban rail rail_electric rail_fast ship container cable_car subway aircraft wheelchair scooter drone">
        <lane index="0">
            <param key="origId" value="117107052"/>
        </lane>
    </edge>
    <edge id="-122193817" from="418390981" to="297892621" name="Avenida de la Buhaira" priority="11" type="highway.secondary" numLanes="1" speed="27.78" shape="5052.64,6559.24 5054.24,6632.75 5056.59,6679.13 5063.81,6911.82 5066.90,6931.08 5067.58,6935.31 5073.30,6947.48" disallow="tram rail_urban rail rail_electric rail_fast ship container cable_car subway aircraft wheelchair scooter drone">
        <lane index="0">
            <param key="origId" value="122193817"/>
        </lane>
    </edge>
    <edge id="-1229272302#0" from="939846701" to="339854665" name="Avenida San José de Calasanz" priority="10" type="highway.tertiary" numLanes="1" speed="22.22" shape="9907.61,2176.79 9913.63,2160.97 9912.23,2143.20 9892.40,2106.87" disallow="tram rail_urban rail rail_electric rail_fast ship container cable_car subway aircraft wheelchair scooter drone">
        <lane index="0">
            <param key="origId" value="1229272302"/>
        </lane>
    </edge>
    <edge id="-1229272302#1" from="339854671" to="939846701" name="Avenida San José de Calasanz" priority="10" type="highway.tertiary" numLanes="1" speed="22.22" disallow="tram rail_urban rail rail_electric rail_fast ship container cable_car subway aircraft wheelchair scooter drone">
        <lane index="0">
            <param key="origId" value="1229272302"/>
        </lane>
    </edge>
    <edge id="-1229272302#2" from="11400048102" to="339854671" name="Avenida San José de Calasanz" priority="10" type="highway.tertiary" numLanes="1" speed="22.22" shape="9691.33,2351.93 9699.71,2345.17 9733.12,2318.24 9881.62,2198.49" disallow="tram rail_urban rail rail_electric rail_fast ship container cable_car subway aircraft wheelchair scooter drone">
        <lane index="0">
            <param key="origId" value="1229272302"/>
        </lane>
    </edge>
    <edge id="-1241770981" from="3535117845" to="3535117847" name="Calle Francisco de Montesinos" priority="10" type="highway.tertiary" numLanes="2" speed="22.22" shape="2458.62,8123.60 2484.11,8119.07 2492.61,8118.51 2500.23,8120.17 2508.28,8124.38" disallow="tram rail_urban rail rail_electric rail_fast ship container cable_car subway aircraft wheelchair scooter drone">
        <lane index="0">
            <param key="origId" value="1241770981"/>
        </lane>
        <lane index="1">
            <param key="origId" value="1241770981"/>
        </lane>
    </edge>
    <edge id="-124717943#1" from="702183421" to="1361551535" name="Calle San José de Palmete" priority="10" type="highway.tertiary" numLanes="1" speed="22.22" shape="8930.89,6555.15 8904.19,6579.55 8868.80,6611.34" disallow="tram rail_urban rail rail_electric rail_fast ship container cable_car subway aircraft wheelchair scooter drone">
        <lane index="0">
            <param key="origId" value="124717943"/>
        </lane>
    </edge>
    <edge id="-127393859#10" from="1410225221" to="1410225206" name="Calle Profesor Manuel Olivencia Ruiz" priority="10" type="highway.tertiary" numLanes="2" speed="22.22" shape="10411.09,8759.71 10426.95,8769.33 10430.33,8771.46 10548.55,8843.10 10664.15,8913.23 10668.72,8916.42 10683.15,8926.50 10698.23,8937.03 10702.71,8940.16 10762.94,8988.41 10805.12,9032.41 10831.51,9059.95 10891.73,9142.45 10897.57,9151.72 10900.40,9156.21 10906.40,9165.71 10920.88,9187.35 10923.97,9191.96 10957.86,9242.61 11010.00,9302.02 11016.88,9309.85 11066.88,9359.33 11103.06,9389.96" disallow="tram rail_urban rail rail_electric rail_fast ship container cable_car subway aircraft wheelchair scooter drone">
        <lane index="0">
            <param key="origId" value="127393859"/>
        </lane>
        <lane index="1">
            <param key="origId" value="127393859"/>
        </lane>
    </edge>
    <edge id="-127720113" from="1412998649" to="479485474" name="Carretera al Psiquiátrico" priority="10" type="highway.tertiary" numLanes="1" speed="22.22" shape="7114.19,11042.25 7121.26,11010.56 7123.57,11003.83 7123.89,10993.46 7107.38,10768.84 7100.98,10688.73" disallow="tram rail_urban rail rail_electric rail_fast ship container cable_car subway aircraft wheelchair scooter drone">
        <lane index="0">
            <param key="origId" value="127720113"/>
        </lane>
        <param key="ref" value="SE-3104"/>
    </edge>
    <edge id="-129211897" from="1251366981" to="1251366901" priority="10" type="highway.tertiary" numLanes="1" speed="22.22" shape="7865.66,2748.26 7856.37,2741.32 7845.88,2731.62 7839.47,2720.43 7833.89,2698.49 7827.94,2663.63 7819.24,2638.81 7817.80,2634.70 7799.25,2590.39 7754.36,2493.38 7623.98,2240.29 7595.65,2188.38 7587.91,2166.61 7585.62,2144.25 7581.86,2120.62 7572.56,2095.58 7547.03,2036.60 7526.15,1989.85 7499.20,1946.49 7402.12,1800.97 7371.92,1755.81 7361.78,1743.49 7336.88,1713.23 7240.74,1595.53 7226.64,1578.25 7213.33,1556.19 7211.29,1546.43" disallow="tram rail_urban rail rail_electric rail_fast ship container cable_car subway aircraft wheelchair scooter drone">
        <lane index="0">
            <param key="origId" value="129211897"/>
        </lane>
    </edge>
    <edge id="-1298616762" from="325686537" to="314307773" name="Calle Pagés del Corro" priority="11" type="highway.secondary" numLanes="1" speed="27.78" shape="2548.10,7086.76 2552.51,7083.68 2555.95,7081.27 2620.03,7036.48 2631.37,7028.56 2667.30,7000.44 2699.71,6972.47 2721.86,6945.98 2726.87,6939.70 2728.80,6937.28 2750.14,6907.05 2789.49,6849.25 2790.48,6847.83 2797.13,6838.52 2800.11,6835.41 2802.60,6832.78 2839.13,6800.13 2842.97,6797.94 2852.12,6792.19 2879.64,6779.68 2950.76,6760.09 2969.70,6752.90 3013.55,6736.70 3065.19,6709.77 3091.85,6691.55 3122.59,6670.54 3126.41,6667.93 3150.00,6644.21 3193.09,6594.45 3210.73,6575.34 3235.62,6548.37 3265.44,6512.45 3269.64,6507.39 3275.83,6498.68" disallow="tram rail_urban rail rail_electric rail_fast ship container cable_car subway aircraft wheelchair scooter drone">
        <lane index="0">
            <param key="origId" value="1298616762 338940730 338940730 1298616760 28604425"/>
        </lane>
    </edge>
    <edge id="-1303420787#1" from="cluster_364160954_866822352" to="333193412" name="Calle Poeta Manuel Benítez Carrasco" priority="12" type="highway.primary" numLanes="2" speed="8.33" shape="5836.59,5005.28 5833.73,4999.86 5822.52,4981.34 5788.62,4925.35 5773.54,4900.42 5767.96,4891.36 5765.24,4886.94 5761.86,4881.45 5744.02,4852.46 5707.73,4791.91 5704.69,4786.83 5701.57,4781.63 5680.30,4746.14 5646.37,4689.94 5641.32,4681.59 5635.45,4671.85 5632.84,4667.53 5631.24,4664.76 5630.06,4663.20 5622.80,4652.72" disallow="tram rail_urban rail rail_electric rail_fast ship container cable_car subway aircraft wheelchair scooter drone">
        <lane index="0">
            <param key="origId" value="1303420787 1303420789 1303420789 1303420789 370316236 370316236 370316236 32351957 32351957 32351957"/>
        </lane>
        <lane index="1">
            <param key="origId" value="1303420787 1303420789 1303420789 1303420789 370316236 370316236 370316236 32351957 32351957 32351957"/>
        </lane>
        <param key="origFrom" value="364160954"/>
    </edge>
    <edge id="-132203511" from="427144321" to="3898736475" name="Calle San José de Palmete" priority="10" type="highway.tertiary" numLanes="1" speed="22.22" shape="8654.21,6792.23 8643.12,6800.65 8623.07,6813.65 8599.46,6827.03 8552.46,6851.98" disallow="tram rail_urban rail rail_electric rail_fast ship container cable_car subway aircraft wheelchair scooter drone">
        <lane index="0">
            <param key="origId" value="132203511 446863477"/>
        </lane>
    </edge>
    <edge id="-1329337773" from="616218459" to="1711991970" priority="12" type="highway.primary" numLanes="1" speed="27.78" shape="8404.31,3611.38 8401.29,3607.85 8379.88,3582.87 8372.21,3573.42 8362.27,3557.59 8354.62,3541.76" disallow="tram rail_urban rail rail_electric rail_fast ship container cable_car subway aircraft wheelchair scooter drone">
        <lane index="0">
            <param key="origId" value="1329337773 249631438 1329337772"/>
        </lane>
    </edge>
    <edge id="-1342183270" from="12416504439" to="12416504440" priority="12" type="highway.primary" numLanes="2" speed="27.78" shape="7316.90,6618.33 7316.68,6627.85 7315.73,6629.60 7311.89,6636.42" disallow="tram rail_urban rail rail_electric rail_fast ship container cable_car subway aircraft wheelchair scooter drone">
        <lane index="0">
            <param key="origId" value="1342183270"/>
        </lane>
        <lane index="1">
            <param key="origId" value="1342183270"/>
        </lane>
    </edge>
    <edge id="-1342183271#0" from="12416504405" to="12416504439" priority="12" type="highway.primary" numLanes="2" speed="27.78" shape="7349.38,6637.60 7346.15,6590.34 7343.85,6586.11 7340.45,6581.79 7333.97,6579.13 7327.84,6578.66 7322.84,6581.22 7318.48,6586.84 7315.99,6590.38 7315.68,6595.71 7316.64,6610.29 7316.90,6618.33" disallow="tram rail_urban rail rail_electric rail_fast ship container cable_car subway aircraft wheelchair scooter drone">
        <lane index="0">
            <param key="origId" value="1342183271"/>
        </lane>
        <lane index="1">
            <param key="origId" value="1342183271"/>
        </lane>
    </edge>
    <edge id="-1342183271#1" from="12416504439" to="12416504405" priority="12" type="highway.primary" numLanes="2" speed="27.78" shape="7316.90,6618.33 7318.85,6630.19 7319.87,6643.01 7323.53,6648.70 7327.52,6651.95 7332.54,6653.20 7340.23,6651.95 7342.33,6650.25 7345.99,6646.70 7349.50,6639.47 7349.38,6637.60" disallow="tram rail_urban rail rail_electric rail_fast ship container cable_car subway aircraft wheelchair scooter drone">
        <lane index="0">
            <param key="origId" value="1342183271"/>
        </lane>
        <lane index="1">
            <param key="origId" value="1342183271"/>
        </lane>
    </edge>
    <edge id="-1353127832#0" from="311617544" to="311616698" name="Avenida de Francia" priority="10" type="highway.tertiary" numLanes="1" speed="22.22" shape="5083.51,2982.63 5063.44,2978.16 5051.95,2975.60 4949.37,2952.77 4825.90,2925.29" disallow="tram rail_urban rail rail_electric rail_fast ship container cable_car subway aircraft wheelchair scooter drone">
        <lane index="0">
            <param key="origId" value="1353127832 65629687"/>
        </lane>
    </edge>
    <edge id="-1353127832#1" from="cluster_311617555_311617579" to="311617544" name="Avenida de Francia" priority="10" type="highway.tertiary" numLanes="1" speed="22.22" shape="5175.74,3003.16 5083.51,2982.63" disallow="tram rail_urban rail rail_electric rail_fast ship container cable_car subway aircraft wheelchair scooter drone">
        <lane index="0">
            <param key="origId" value="1353127832"/>
        </lane>
        <param key="origFrom" value="311617555"/>
    </edge>
    <edge id="-135516567" from="cluster_2540014916_2540014919" to="687554876" name="Paseo de la Palmera" priority="12" type="highway.primary" numLanes="3" speed="13.89" shape="4461.47,5129.48 4456.99,5138.43 4454.73,5142.59 4408.52,5231.36 4403.32,5240.85" disallow="tram rail_urban rail rail_electric rail_fast ship container cable_car subway aircraft wheelchair scooter drone">
        <lane index="0">
            <param key="origId" value="135516567 332101605 332101605 332101605"/>
        </lane>
        <lane index="1">
            <param key="origId" value="135516567 332101605 332101605 332101605"/>
        </lane>
        <lane index="2">
            <param key="origId" value="135516567 332101605 332101605 332101605"/>
        </lane>
        <param key="origFrom" value="2540014919"/>
    </edge>
    <edge id="-135737407" from="2402267084" to="1490231787" name="Calle Cardenal Bueno Monreal" priority="12" type="highway.primary" numLanes="1" speed="27.78" shape="5334.30,5608.27 5329.15,5590.51 5301.24,5493.65 5298.19,5483.06 5276.87,5408.32" disallow="pedestrian tram rail_urban rail rail_electric rail_fast ship container cable_car subway aircraft wheelchair scooter drone">
        <lane index="0">
            <param key="origId" value="135737407"/>
        </lane>
    </edge>
    <edge id="-1368388731#1" from="304501816" to="304501813" name="Ronda del Tamarguillo" priority="12" type="highway.primary" numLanes="3" speed="13.89" shape="6751.08,6276.05 6752.03,6280.82 6753.95,6302.66 6759.11,6361.57 6763.23,6422.35 6771.76,6545.41 6779.57,6654.24 6781.00,6673.98" disallow="tram rail_urban rail rail_electric rail_fast ship container cable_car subway aircraft wheelchair scooter drone">
        <lane index="0">
            <param key="origId" value="1368388731 1368388731 1368388384 79409355"/>
        </lane>
        <lane index="1">
            <param key="origId" value="1368388731 1368388731 1368388384 79409355"/>
        </lane>
        <lane index="2">
            <param key="origId" value="1368388731 1368388731 1368388384 79409355"/>
        </lane>
    </edge>
    <edge id="-1368388731#2" from="304501818" to="304501816" name="Ronda del Tamarguillo" priority="12" type="highway.primary" numLanes="3" speed="13.89" disallow="tram rail_urban rail rail_electric rail_fast ship container cable_car subway aircraft wheelchair scooter drone">
        <lane index="0">
            <param key="origId" value="1368388731"/>
        </lane>
        <lane index="1">
            <param key="origId" value="1368388731"/>
        </lane>
        <lane index="2">
            <param key="origId" value="1368388731"/>
        </lane>
    </edge>
    <edge id="-1370956307#2" from="12697308481" to="12697308553" name="Calle Éfeso" priority="12" type="highway.primary" numLanes="1" speed="27.78" shape="6496.73,8112.72 6490.65,8120.19 6485.19,8126.11 6464.77,8148.28 6454.83,8159.07" disallow="tram rail_urban rail rail_electric rail_fast ship container cable_car subway aircraft wheelchair scooter drone">
        <lane index="0">
            <param key="origId" value="1370956307"/>
        </lane>
    </edge>
    <edge id="-1370956307#3" from="307860549" to="12697308481" name="Calle Éfeso" priority="12" type="highway.primary" numLanes="1" speed="27.78" shape="6542.69,8064.94 6527.31,8075.15 6496.73,8112.72" disallow="tram rail_urban rail rail_electric rail_fast ship container cable_car subway aircraft wheelchair scooter drone">
        <lane index="0">
            <param key="origId" value="1370956307"/>
        </lane>
    </edge>
    <edge id="-1371910960" from="2578066970" to="1965730406" name="Calle Resolana" priority="12" type="highway.primary" numLanes="1" speed="13.89" shape="3796.89,9068.81 3735.57,9077.80 3728.36,9078.81 3686.97,9084.66 3635.46,9090.89 3631.02,9091.43 3626.10,9091.82 3624.70,9091.91 3609.61,9092.31" allow="bus bicycle">
        <lane index="0">
            <param key="origId" value="1371910960 642986365 584651077"/>
        </lane>
    </edge>
    <edge id="-1372160681#2" from="746302930" to="307860553" name="Calle Ada" priority="12" type="highway.primary" numLanes="1" speed="13.89" shape="6818.45,7748.24 6813.32,7759.16 6811.72,7762.57 6794.54,7800.93 6781.60,7825.18" disallow="tram rail_urban rail rail_electric rail_fast ship container cable_car subway aircraft wheelchair scooter drone">
        <lane index="0">
            <param key="origId" value="1372160681"/>
        </lane>
    </edge>
    <edge id="-1372216573#3" from="cluster_304791383_304791384" to="3535117847" name="Camino de los Descubrimientos" priority="10" type="highway.tertiary" numLanes="2" speed="22.22" shape="2884.37,9268.49 2882.57,9258.60 2881.96,9255.17 2881.10,9250.31 2878.79,9236.82 2854.09,9098.39 2852.49,9089.44 2845.98,9054.81 2839.78,9020.30 2813.05,8873.32 2806.89,8839.98 2805.70,8834.28 2782.38,8704.55 2767.59,8622.21 2753.26,8542.36 2748.92,8524.43 2746.08,8516.64 2742.58,8507.06 2733.76,8488.90 2694.51,8424.46 2647.71,8347.14 2642.67,8339.12 2640.95,8336.15 2616.24,8294.67 2526.10,8148.36 2519.34,8137.55 2514.70,8130.15 2508.28,8124.38" disallow="tram rail_urban rail rail_electric rail_fast ship container cable_car subway aircraft wheelchair scooter drone">
        <lane index="0">
            <param key="origId" value="1372216573 1372216573 1372216573 97887765"/>
        </lane>
        <lane index="1">
            <param key="origId" value="1372216573 1372216573 1372216573 97887765"/>
        </lane>
        <param key="origFrom" value="304791383"/>
    </edge>
    <edge id="-1373888461" from="702183406" to="10855840195" name="Calle San José de Palmete" priority="10" type="highway.tertiary" numLanes="2" speed="22.22" shape="9150.88,6363.74 9150.47,6364.10 9121.72,6388.24 9120.17,6389.54 9070.25,6432.50" disallow="tram rail_urban rail rail_electric rail_fast ship container cable_car subway aircraft wheelchair scooter drone">
        <lane index="0">
            <param key="origId" value="1373888461 55930540 1373888462 386531446"/>
        </lane>
        <lane index="1">
            <param key="origId" value="1373888461 55930540 1373888462 386531446"/>
        </lane>
    </edge>
    <edge id="-1374303295" from="494904253" to="427144321" priority="10" type="highway.tertiary" numLanes="1" speed="22.22" disallow="tram rail_urban rail rail_electric rail_fast ship container cable_car subway aircraft wheelchair scooter drone">
        <lane index="0">
            <param key="origId" value="1374303295"/>
        </lane>
    </edge>
    <edge id="-1374303298" from="2874807354" to="494904253" priority="10" type="highway.tertiary" numLanes="1" speed="22.22" disallow="tram rail_urban rail rail_electric rail_fast ship container cable_car subway aircraft wheelchair scooter drone">
        <lane index="0">
            <param key="origId" value="1374303298"/>
        </lane>
    </edge>