<?xml version="1.0" encoding="UTF-8"?>

<!-- generated on 2025-07-15 14:05:23 by Eclipse SUMO netconvert Version 1.23.1
<netconvertConfiguration xmlns:xsi="http://www.w3.org/2001/XMLSchema-instance" xsi:noNamespaceSchemaLocation="http://sumo.dlr.de/xsd/netconvertConfiguration.xsd">

    <input>
        <sumo-net-file value="osm.net.xml.gz"/>
    </input>

    <output>
        <plain-output-prefix value="network"/>
        <output.street-names value="true"/>
    </output>

    <processing>
        <geometry.min-radius.fix.railways value="false"/>
        <geometry.avoid-overlap value="false"/>
        <geometry.max-grade.fix value="false"/>
        <offset.disable-normalization value="true"/>
        <lefthand value="0"/>
    </processing>

    <junctions>
        <no-turnarounds value="true"/>
        <junctions.corner-detail value="5"/>
        <junctions.limit-turn-speed value="5.50"/>
        <rectangular-lane-cut value="0"/>
    </junctions>

    <pedestrian>
        <walkingareas value="0"/>
    </pedestrian>

</netconvertConfiguration>
-->

<connections version="1.20" xmlns:xsi="http://www.w3.org/2001/XMLSchema-instance" xsi:noNamespaceSchemaLocation="http://sumo.dlr.de/xsd/connections_file.xsd">
    <connection from="-1000927079" to="1370977118" fromLane="0" toLane="0"/>

    <connection from="-1019254303" to="1019254303" fromLane="0" toLane="1"/>

    <connection from="-1019254304" to="1019254307" fromLane="0" toLane="0"/>
    <connection from="-1019254304" to="1019254304" fromLane="0" toLane="0"/>

    <connection from="-1044163467#1" to="-30183813#1" fromLane="0" toLane="0"/>
    <connection from="-1044163467#1" to="-447598476" fromLane="0" toLane="0"/>
    <connection from="-1044163467#1" to="-447598476" fromLane="1" toLane="1"/>
    <connection from="-1044163467#1" to="892407187" fromLane="1" toLane="1"/>

    <connection from="-1056895529#0" to="-183454727#4" fromLane="0" toLane="0"/>
    <connection from="-1056895529#0" to="-183454727#4" fromLane="1" toLane="1"/>

    <connection from="-1056895529#1" to="-1056895529#0" fromLane="0" toLane="0"/>
    <connection from="-1056895529#1" to="-1056895529#0" fromLane="1" toLane="1"/>
    <connection from="-1056895529#1" to="1056895529#1" fromLane="1" toLane="1"/>

    <connection from="-1086372857#1" to="28035821" fromLane="0" toLane="0"/>
    <connection from="-1086372857#1" to="-61912607" fromLane="0" toLane="0"/>
    <connection from="-1086372857#1" to="-61912607" fromLane="1" toLane="1"/>
    <connection from="-1086372857#1" to="1086372857#0" fromLane="1" toLane="1"/>

    <connection from="-1121908324#1" to="53827960" fromLane="0" toLane="0"/>
    <connection from="-1121908324#1" to="49666438" fromLane="0" toLane="0"/>
    <connection from="-1121908324#1" to="67162267#0" fromLane="0" toLane="0"/>
    <connection from="-1121908324#1" to="-67162264#5" fromLane="0" toLane="1"/>
    <connection from="-1121908324#1" to="1121908323#0" fromLane="0" toLane="0"/>

    <connection from="-1121908324#5" to="-1121908324#1" fromLane="0" toLane="0"/>
    <connection from="-1121908324#5" to="27879699#0" fromLane="0" toLane="0"/>
    <connection from="-1121908324#5" to="1121908324#2" fromLane="0" toLane="0"/>

    <connection from="-1137958420" to="285531481" fromLane="0" toLane="0"/>
    <connection from="-1137958420" to="285531481" fromLane="1" toLane="1"/>
    <connection from="-1137958420" to="285531482" fromLane="1" toLane="1"/>

    <connection from="-1137958425" to="-1137958420" fromLane="0" toLane="0"/>
    <connection from="-1137958425" to="-1137958420" fromLane="1" toLane="1"/>

    <connection from="-1138018269" to="54725699#0" fromLane="0" toLane="0"/>
    <connection from="-1138018269" to="-700944781#2" fromLane="0" toLane="0"/>
    <connection from="-1138018269" to="-700944781#2" fromLane="1" toLane="1"/>

    <connection from="-113880132" to="113880131#0" fromLane="0" toLane="0"/>

    <connection from="-113880679#0" to="222105713" fromLane="0" toLane="0"/>
    <connection from="-113880679#0" to="28354664#1" fromLane="0" toLane="0"/>
    <connection from="-113880679#0" to="28354664#1" fromLane="1" toLane="1"/>
    <connection from="-113880679#0" to="-28354664#0" fromLane="1" toLane="1"/>

    <connection from="-113880679#1" to="-113880679#0" fromLane="0" toLane="0"/>
    <connection from="-113880679#1" to="-113880679#0" fromLane="1" toLane="1"/>
    <connection from="-113880679#1" to="113880679#1" fromLane="1" toLane="1"/>

    <connection from="-113880679#2" to="-113880679#1" fromLane="0" toLane="0"/>
    <connection from="-113880679#2" to="-113880679#1" fromLane="1" toLane="1"/>
    <connection from="-113880679#2" to="113880679#2" fromLane="1" toLane="1"/>

    <connection from="-1156001077" to="45744236" fromLane="0" toLane="0"/>
    <connection from="-1156001077" to="45744236" fromLane="1" toLane="1"/>

    <connection from="-1160122274" to="238580264#0" fromLane="0" toLane="0"/>
    <connection from="-1160122274" to="238580264#0" fromLane="1" toLane="1"/>
    <connection from="-1160122274" to="238580264#0" fromLane="2" toLane="2"/>
    <connection from="-1160122274" to="238580263" fromLane="2" toLane="2"/>

    <connection from="-117107052" to="-186526645" fromLane="0" toLane="0"/>

    <connection from="-122193817" to="-334892162#3" fromLane="0" toLane="0"/>
    <connection from="-122193817" to="59529524#0" fromLane="0" toLane="0"/>
    <connection from="-122193817" to="59529524#0" fromLane="0" toLane="1"/>
    <connection from="-122193817" to="904300889#0" fromLane="0" toLane="1"/>
    <connection from="-122193817" to="122193817" fromLane="0" toLane="0"/>

    <connection from="-1229272302#0" to="-30728917" fromLane="0" toLane="0"/>
    <connection from="-1229272302#0" to="1110456092" fromLane="0" toLane="0"/>
    <connection from="-1229272302#0" to="1229272302#0" fromLane="0" toLane="0"/>

    <connection from="-1229272302#1" to="-1229272302#0" fromLane="0" toLane="0"/>
    <connection from="-1229272302#1" to="1229272302#1" fromLane="0" toLane="0"/>

    <connection from="-1229272302#2" to="-1229272302#1" fromLane="0" toLane="0"/>
    <connection from="-1229272302#2" to="1229272302#2" fromLane="0" toLane="0"/>

    <connection from="-1241770981" to="1241770980" fromLane="0" toLane="0"/>
    <connection from="-1241770981" to="97887765#0" fromLane="0" toLane="0"/>
    <connection from="-1241770981" to="97887765#0" fromLane="1" toLane="1"/>
    <connection from="-1241770981" to="1241770981" fromLane="1" toLane="1"/>

    <connection from="-124717943#1" to="121712970" fromLane="0" toLane="0"/>
    <connection from="-124717943#1" to="121712970" fromLane="0" toLane="1"/>
    <connection from="-124717943#1" to="124717943#0" fromLane="0" toLane="0"/>

    <connection from="-127393859#10" to="127393858#0" fromLane="0" toLane="0"/>
    <connection from="-127393859#10" to="127393858#0" fromLane="1" toLane="1"/>
    <connection from="-127393859#10" to="127393859#0" fromLane="1" toLane="1"/>

    <connection from="-127720113" to="-638988798" fromLane="0" toLane="0"/>
    <connection from="-127720113" to="-57385755" fromLane="0" toLane="0"/>
    <connection from="-127720113" to="127720113" fromLane="0" toLane="0"/>

    <connection from="-129211897" to="-139289310" fromLane="0" toLane="0"/>

    <connection from="-1298616762" to="-786019233" fromLane="0" toLane="0"/>
    <connection from="-1298616762" to="28604425#0" fromLane="0" toLane="0"/>

    <connection from="-1303420787#1" to="39660008#1" fromLane="0" toLane="0" visibility="9.00"/>
    <connection from="-1303420787#1" to="39660008#1" fromLane="1" toLane="1" visibility="9.00"/>

    <connection from="-132203511" to="-423007011#1" fromLane="0" toLane="0"/>
    <connection from="-132203511" to="446863477" fromLane="0" toLane="0"/>

    <connection from="-1329337773" to="-48500469" fromLane="0" toLane="0"/>
    <connection from="-1329337773" to="1329337772" fromLane="0" toLane="1"/>

    <connection from="-1342183270" to="638715674#1" fromLane="0" toLane="0" visibility="9.00"/>
    <connection from="-1342183270" to="638715674#1" fromLane="1" toLane="1" visibility="9.00"/>

    <connection from="-1342183271#0" to="-1342183271#1" fromLane="0" toLane="0"/>
    <connection from="-1342183271#0" to="-1342183270" fromLane="0" toLane="0"/>
    <connection from="-1342183271#0" to="-1342183270" fromLane="1" toLane="1"/>
    <connection from="-1342183271#0" to="1342183271#0" fromLane="1" toLane="1"/>

    <connection from="-1342183271#1" to="-1342183271#0" fromLane="0" toLane="0"/>
    <connection from="-1342183271#1" to="-1342183271#0" fromLane="1" toLane="1"/>

    <connection from="-1353127832#0" to="28355609#1" fromLane="0" toLane="0"/>
    <connection from="-1353127832#0" to="-65629687#0" fromLane="0" toLane="0"/>
    <connection from="-1353127832#0" to="-28355609#0" fromLane="0" toLane="0"/>
    <connection from="-1353127832#0" to="65629687#1" fromLane="0" toLane="0"/>

    <connection from="-1353127832#1" to="-28372125" fromLane="0" toLane="0"/>
    <connection from="-1353127832#1" to="-1353127832#0" fromLane="0" toLane="0"/>
    <connection from="-1353127832#1" to="639961915" fromLane="0" toLane="0"/>
    <connection from="-1353127832#1" to="1353127832#1" fromLane="0" toLane="0"/>

    <connection from="-135516567" to="54617143#0" fromLane="0" toLane="0"/>
    <connection from="-135516567" to="-332101606#1" fromLane="0" toLane="0"/>
    <connection from="-135516567" to="-332101606#1" fromLane="1" toLane="1"/>
    <connection from="-135516567" to="-332101606#1" fromLane="2" toLane="2"/>

    <connection from="-135737407" to="135737406" fromLane="0" toLane="0"/>
    <connection from="-135737407" to="135737406" fromLane="0" toLane="1"/>
    <connection from="-135737407" to="135737406" fromLane="0" toLane="2"/>

    <connection from="-1368388731#1" to="-238833966" fromLane="0" toLane="0"/>
    <connection from="-1368388731#1" to="-725693398#2" fromLane="0" toLane="0"/>
    <connection from="-1368388731#1" to="-725693398#2" fromLane="1" toLane="1"/>
    <connection from="-1368388731#1" to="-725693398#2" fromLane="2" toLane="2"/>

    <connection from="-1368388731#2" to="-1368388731#1" fromLane="0" toLane="0"/>
    <connection from="-1368388731#2" to="-1368388731#1" fromLane="1" toLane="1"/>
    <connection from="-1368388731#2" to="-1368388731#1" fromLane="2" toLane="2"/>
    <connection from="-1368388731#2" to="1368388731#2" fromLane="2" toLane="2"/>

    <connection from="-1370956307#2" to="1370956307#0" fromLane="0" toLane="0"/>

    <connection from="-1370956307#3" to="-1370956307#2" fromLane="0" toLane="0"/>
    <connection from="-1370956307#3" to="60045952#0" fromLane="0" toLane="0"/>
    <connection from="-1370956307#3" to="1370956307#3" fromLane="0" toLane="2"/>

    <connection from="-1371910960" to="638719623" fromLane="0" toLane="0"/>
    <connection from="-1371910960" to="584651077#0" fromLane="0" toLane="2"/>

    <connection from="-1372160681#2" to="208421649#0" fromLane="0" toLane="1"/>
    <connection from="-1372160681#2" to="208421649#0" fromLane="0" toLane="2"/>
    <connection from="-1372160681#2" to="1372160681#0" fromLane="0" toLane="2"/>

    <connection from="-1372216573#3" to="1241770981" fromLane="0" toLane="0"/>
    <connection from="-1372216573#3" to="1241770981" fromLane="1" toLane="1"/>
    <connection from="-1372216573#3" to="1241770980" fromLane="1" toLane="1"/>
    <connection from="-1372216573#3" to="97887765#0" fromLane="1" toLane="1"/>

    <connection from="-1373888461" to="1167342533" fromLane="0" toLane="0"/>
    <connection from="-1373888461" to="1167342533" fromLane="0" toLane="1"/>
    <connection from="-1373888461" to="1167342533" fromLane="1" toLane="2"/>
    <connection from="-1373888461" to="1167342533" fromLane="1" toLane="3"/>
    <connection from="-1373888461" to="386531446" fromLane="1" toLane="1"/>

    <connection from="-1374303295" to="-132203511" fromLane="0" toLane="0"/>
    <connection from="-1374303295" to="1374303295" fromLane="0" toLane="0"/>

    <connection from="-1374303298" to="1374303297" fromLane="0" toLane="0"/>
    <connection from="-1374303298" to="-1374303295" fromLane="0" toLane="0"/>
    <connection from="-1374303298" to="1374303298" fromLane="0" toLane="0"/>

    <connection from="-1374303304" to="283642574" fromLane="0" toLane="0"/>
    <connection from="-1374303304" to="-283642560" fromLane="0" toLane="0"/>
    <connection from="-1374303304" to="283642570" fromLane="1" toLane="1"/>

    <connection from="-1376669697" to="45572009#0" fromLane="0" toLane="0"/>
    <connection from="-1376669697" to="1376669696#0" fromLane="1" toLane="0"/>

    <connection from="-1382373141#1" to="1382373141#0" fromLane="0" toLane="0"/>

    <connection from="-139289310" to="139289310" fromLane="0" toLane="0"/>

    <connection from="-142236550" to="74041542" fromLane="0" toLane="0"/>
    <connection from="-142236550" to="142236550" fromLane="0" toLane="0"/>

    <connection from="-142502375#3" to="185144702" fromLane="0" toLane="0"/>
    <connection from="-142502375#3" to="-142502376" fromLane="0" toLane="0"/>
    <connection from="-142502375#3" to="313014281#0" fromLane="0" toLane="0"/>

    <connection from="-142502376" to="43388194" fromLane="0" toLane="0"/>
    <connection from="-142502376" to="-61278284#2" fromLane="0" toLane="0"/>
    <connection from="-142502376" to="142502376" fromLane="0" toLane="0"/>

    <connection from="-146400216" to="142267598" fromLane="0" toLane="0"/>
    <connection from="-146400216" to="146400216" fromLane="0" toLane="0"/>

    <connection from="-157502405" to="157502406" fromLane="0" toLane="0"/>
    <connection from="-157502405" to="-157502421" fromLane="0" toLane="0"/>
    <connection from="-157502405" to="157502405" fromLane="0" toLane="0"/>

    <connection from="-157502407#1" to="57727119#0" fromLane="0" toLane="0"/>
    <connection from="-157502407#1" to="-66098506#3" fromLane="0" toLane="0"/>
    <connection from="-157502407#1" to="57727122#0" fromLane="0" toLane="1"/>
    <connection from="-157502407#1" to="157502407#0" fromLane="0" toLane="0"/>

    <connection from="-157502421" to="-157502407#1" fromLane="0" toLane="0"/>
    <connection from="-157502421" to="187935955#0" fromLane="0" toLane="0"/>
    <connection from="-157502421" to="642986370" fromLane="0" toLane="0"/>

    <connection from="-157534940#1" to="157534939" fromLane="0" toLane="0"/>
    <connection from="-157534940#1" to="157534940#0" fromLane="0" toLane="0"/>

    <connection from="-160568897" to="160568898" fromLane="0" toLane="0"/>
    <connection from="-160568897" to="160568897" fromLane="0" toLane="0"/>

    <connection from="-170811632" to="257784934" fromLane="0" toLane="0"/>
    <connection from="-170811632" to="257784934" fromLane="0" toLane="1"/>
    <connection from="-170811632" to="170811632" fromLane="0" toLane="0"/>

    <connection from="-172137212" to="195574862" fromLane="0" toLane="0"/>
    <connection from="-172137212" to="-195574850" fromLane="0" toLane="0"/>

    <connection from="-172137227#0" to="30728521" fromLane="0" toLane="0"/>
    <connection from="-172137227#0" to="172137227#0" fromLane="0" toLane="0"/>

    <connection from="-172137227#1" to="-172137227#0" fromLane="0" toLane="0"/>
    <connection from="-172137227#1" to="145431603" fromLane="0" toLane="0"/>
    <connection from="-172137227#1" to="172137227#1" fromLane="0" toLane="0"/>

    <connection from="-173076714#2" to="28089431#0" fromLane="0" toLane="0"/>
    <connection from="-173076714#2" to="-237519742" fromLane="0" toLane="0"/>
    <connection from="-173076714#2" to="173076714#0" fromLane="1" toLane="2"/>

    <connection from="-177343973" to="43768267#0" fromLane="0" toLane="0"/>
    <connection from="-177343973" to="-456654195" fromLane="0" toLane="0"/>
    <connection from="-177343973" to="177343971" fromLane="0" toLane="0"/>

    <connection from="-182183037#1" to="-448768998#1" fromLane="0" toLane="0"/>
    <connection from="-182183037#1" to="-239077121#3" fromLane="0" toLane="0"/>
    <connection from="-182183037#1" to="-239077121#3" fromLane="1" toLane="1"/>
    <connection from="-182183037#1" to="260077617#0" fromLane="1" toLane="0"/>

    <connection from="-183454727#4" to="183454732" fromLane="0" toLane="0"/>
    <connection from="-183454727#4" to="183454732" fromLane="1" toLane="1"/>
    <connection from="-183454727#4" to="183454727#0" fromLane="1" toLane="1"/>

    <connection from="-183975086" to="-1137958425" fromLane="0" toLane="1"/>

    <connection from="-184908997#2" to="-76344919#2" fromLane="0" toLane="0"/>
    <connection from="-184908997#2" to="184901477#0" fromLane="0" toLane="2"/>
    <connection from="-184908997#2" to="184908997#0" fromLane="0" toLane="0"/>

    <connection from="-186184931#9" to="58800421#0" fromLane="0" toLane="0" visibility="9.00"/>

    <connection from="-186485143#1" to="-117107052" fromLane="0" toLane="0"/>
    <connection from="-186485143#1" to="186485142#0" fromLane="0" toLane="0"/>

    <connection from="-186526645" to="-186526646#3" fromLane="0" toLane="0"/>
    <connection from="-186526645" to="60045916" fromLane="0" toLane="0"/>
    <connection from="-186526645" to="186526645" fromLane="0" toLane="0"/>

    <connection from="-186526646#3" to="57732279#3" fromLane="0" toLane="0"/>
    <connection from="-186526646#3" to="34760671#0" fromLane="0" toLane="0"/>

    <connection from="-190063815#2" to="-28037600#1" fromLane="0" toLane="0"/>
    <connection from="-190063815#2" to="-313014286#1" fromLane="0" toLane="0"/>
    <connection from="-190063815#2" to="1382373139#0" fromLane="0" toLane="1"/>
    <connection from="-190063815#2" to="-1382373141#1" fromLane="0" toLane="0"/>
    <connection from="-190063815#2" to="190063815#0" fromLane="0" toLane="0"/>

    <connection from="-190111970#3" to="73037066" fromLane="0" toLane="0"/>
    <connection from="-190111970#3" to="190111970#0" fromLane="0" toLane="0"/>

    <connection from="-195567980" to="195567979#0" fromLane="0" toLane="0"/>
    <connection from="-195567980" to="195567979#0" fromLane="1" toLane="1"/>

    <connection from="-195571137" to="422036397" fromLane="0" toLane="0"/>
    <connection from="-195571137" to="-639334623" fromLane="1" toLane="0"/>
    <connection from="-195571137" to="195571137" fromLane="2" toLane="2"/>

    <connection from="-195574850" to="195574853" fromLane="0" toLane="0"/>
    <connection from="-195574850" to="-172137212" fromLane="0" toLane="0"/>

    <connection from="-196782992" to="28372126" fromLane="0" toLane="0"/>
    <connection from="-196782992" to="-1353127832#1" fromLane="0" toLane="0"/>
    <connection from="-196782992" to="196782992" fromLane="0" toLane="0"/>

    <connection from="-19747258" to="780953379" fromLane="0" toLane="0"/>
    <connection from="-19747258" to="780953379" fromLane="1" toLane="1"/>

    <connection from="-19747779" to="31236760#0" fromLane="0" toLane="0"/>
    <connection from="-19747779" to="238758031#1" fromLane="0" toLane="0"/>
    <connection from="-19747779" to="238758031#1" fromLane="0" toLane="1"/>
    <connection from="-19747779" to="238758031#1" fromLane="1" toLane="2"/>
    <connection from="-19747779" to="238758031#1" fromLane="1" toLane="3"/>
    <connection from="-19747779" to="19747779" fromLane="1" toLane="1"/>

    <connection from="-19747856" to="-19747779" fromLane="0" toLane="0"/>
    <connection from="-19747856" to="-19747779" fromLane="1" toLane="1"/>

    <connection from="-19747865" to="-19747856" fromLane="0" toLane="0"/>
    <connection from="-19747865" to="-19747856" fromLane="1" toLane="1"/>

    <connection from="-19753727#3" to="-1371910960" fromLane="0" toLane="0"/>

    <connection from="-19783394" to="129752914" fromLane="0" toLane="0"/>
    <connection from="-19783394" to="129752914" fromLane="1" toLane="1"/>
    <connection from="-19783394" to="129752914" fromLane="2" toLane="2"/>

    <connection from="-207283319" to="-339756997" fromLane="0" toLane="0"/>
    <connection from="-207283319" to="-36740360" fromLane="0" toLane="0"/>
    <connection from="-207283319" to="-36740360" fromLane="1" toLane="1"/>
    <connection from="-207283319" to="207283319" fromLane="1" toLane="1"/>

    <connection from="-208421637#2" to="27729657#0" fromLane="0" toLane="0"/>
    <connection from="-208421637#2" to="27729657#0" fromLane="1" toLane="1"/>

    <connection from="-208421649#4" to="1372160681#0" fromLane="0" toLane="0"/>
    <connection from="-208421649#4" to="1372160681#0" fromLane="1" toLane="1"/>
    <connection from="-208421649#4" to="1372160681#0" fromLane="2" toLane="2"/>
    <connection from="-208421649#4" to="208421649#0" fromLane="2" toLane="2"/>

    <connection from="-212055133" to="-450283701" fromLane="0" toLane="0"/>
    <connection from="-212055133" to="212055133" fromLane="0" toLane="0"/>

    <connection from="-222105714" to="-28354664#1" fromLane="0" toLane="0"/>
    <connection from="-222105714" to="-28354664#1" fromLane="1" toLane="1"/>

    <connection from="-22742149#1" to="-494999660" fromLane="0" toLane="0"/>

    <connection from="-23057154" to="-456654203" fromLane="0" toLane="0"/>
    <connection from="-23057154" to="-456654203" fromLane="1" toLane="1"/>
    <connection from="-23057154" to="23057154" fromLane="1" toLane="1"/>

    <connection from="-23120605" to="23120514" fromLane="0" toLane="0"/>
    <connection from="-23120605" to="23125116" fromLane="1" toLane="0"/>
    <connection from="-23120605" to="23120605" fromLane="1" toLane="0"/>

    <connection from="-23126106" to="183975103" fromLane="0" toLane="0"/>

    <connection from="-231562529" to="231562536" fromLane="0" toLane="0"/>

    <connection from="-231562532" to="231562534" fromLane="0" toLane="0"/>
    <connection from="-231562532" to="231562532" fromLane="0" toLane="0"/>

    <connection from="-236178542#0" to="236178542#0" fromLane="0" toLane="0"/>

    <connection from="-236178542#1" to="-236178542#0" fromLane="0" toLane="0"/>
    <connection from="-236178542#1" to="766633672" fromLane="0" toLane="0"/>
    <connection from="-236178542#1" to="236178542#1" fromLane="0" toLane="0"/>

    <connection from="-236186035" to="-297825840" fromLane="0" toLane="0"/>
    <connection from="-236186035" to="48785155" fromLane="0" toLane="0"/>

    <connection from="-237277454" to="-508274046" fromLane="0" toLane="0"/>
    <connection from="-237277454" to="-508274046" fromLane="1" toLane="1"/>

    <connection from="-237277455" to="-510585241#1" fromLane="0" toLane="0"/>
    <connection from="-237277455" to="-510585241#1" fromLane="1" toLane="1"/>
    <connection from="-237277455" to="-510585241#1" fromLane="2" toLane="2"/>
    <connection from="-237277455" to="237277455" fromLane="2" toLane="3"/>

    <connection from="-237277456" to="-237277454" fromLane="0" toLane="0"/>
    <connection from="-237277456" to="-237277454" fromLane="1" toLane="1"/>

    <connection from="-237277457" to="22295867#0" fromLane="0" toLane="0"/>
    <connection from="-237277457" to="-237277455" fromLane="0" toLane="0"/>
    <connection from="-237277457" to="-237277455" fromLane="1" toLane="1"/>
    <connection from="-237277457" to="-237277455" fromLane="2" toLane="2"/>
    <connection from="-237277457" to="237277457" fromLane="2" toLane="3"/>

    <connection from="-237277458" to="-237277456" fromLane="0" toLane="0"/>
    <connection from="-237277458" to="-237277456" fromLane="1" toLane="1"/>
    <connection from="-237277458" to="-237277456" fromLane="2" toLane="2"/>

    <connection from="-237519742" to="-49664466#1" fromLane="0" toLane="0"/>
    <connection from="-237519742" to="-49664466#1" fromLane="0" toLane="1"/>
    <connection from="-237519742" to="38622296" fromLane="0" toLane="0"/>
    <connection from="-237519742" to="237519742" fromLane="0" toLane="2"/>

    <connection from="-237647077" to="39723095" fromLane="0" toLane="0"/>
    <connection from="-237647077" to="237647077" fromLane="0" toLane="0"/>

    <connection from="-238190567" to="-375766978#2" fromLane="0" toLane="0"/>
    <connection from="-238190567" to="-375766978#2" fromLane="1" toLane="1"/>

    <connection from="-238190575" to="19745621#0" fromLane="0" toLane="0"/>
    <connection from="-238190575" to="19745621#0" fromLane="1" toLane="1"/>
    <connection from="-238190575" to="238190575" fromLane="1" toLane="2"/>

    <connection from="-238191814#2" to="238191811#0" fromLane="0" toLane="0"/>
    <connection from="-238191814#2" to="-371705055#2" fromLane="0" toLane="0"/>
    <connection from="-238191814#2" to="-371705055#2" fromLane="1" toLane="1"/>
    <connection from="-238191814#2" to="238190565#0" fromLane="1" toLane="2"/>
    <connection from="-238191814#2" to="238191814#0" fromLane="1" toLane="1"/>

    <connection from="-238191820" to="-293005690" fromLane="0" toLane="0"/>
    <connection from="-238191820" to="-293005690" fromLane="1" toLane="1"/>
    <connection from="-238191820" to="-293005690" fromLane="2" toLane="2"/>

    <connection from="-238758815" to="-239663352" fromLane="0" toLane="0"/>

    <connection from="-238758825#1" to="-55189244#1" fromLane="0" toLane="0"/>

    <connection from="-238828420#0" to="66771895" fromLane="0" toLane="0"/>

    <connection from="-238828426#0" to="-238828420#0" fromLane="0" toLane="0"/>
    <connection from="-238828426#0" to="-238828427" fromLane="0" toLane="0"/>
    <connection from="-238828426#0" to="238828426#0" fromLane="0" toLane="0"/>

    <connection from="-238828426#1" to="-238828426#0" fromLane="0" toLane="0"/>
    <connection from="-238828426#1" to="238828426#1" fromLane="0" toLane="0"/>

    <connection from="-238828426#3" to="-238828426#1" fromLane="0" toLane="0"/>
    <connection from="-238828426#3" to="1157986712#0" fromLane="0" toLane="0"/>
    <connection from="-238828426#3" to="238828426#2" fromLane="0" toLane="0"/>

    <connection from="-238828427" to="-890038804" fromLane="0" toLane="0"/>
    <connection from="-238828427" to="-43761827" fromLane="0" toLane="0"/>
    <connection from="-238828427" to="334162219#0" fromLane="0" toLane="0"/>

    <connection from="-238831817" to="1022485707" fromLane="0" toLane="0"/>
    <connection from="-238831817" to="1022485707" fromLane="1" toLane="1"/>
    <connection from="-238831817" to="238831817" fromLane="1" toLane="1"/>

    <connection from="-238831818" to="30672266" fromLane="0" toLane="0"/>
    <connection from="-238831818" to="-238831817" fromLane="0" toLane="0"/>
    <connection from="-238831818" to="-238831817" fromLane="1" toLane="1"/>
    <connection from="-238831818" to="-238831820" fromLane="1" toLane="0"/>
    <connection from="-238831818" to="238831818" fromLane="1" toLane="1"/>

    <connection from="-238831820" to="-639346214" fromLane="0" toLane="0"/>

    <connection from="-238831821#1" to="-1019254304" fromLane="0" toLane="0"/>

    <connection from="-238833966" to="638715674#0" fromLane="0" toLane="0" visibility="9.00"/>

    <connection from="-239075737#2" to="-239077122#1" fromLane="0" toLane="0"/>
    <connection from="-239075737#2" to="73037132#0" fromLane="0" toLane="0"/>
    <connection from="-239075737#2" to="239075737#1" fromLane="0" toLane="0"/>

    <connection from="-239075744#5" to="639340283" fromLane="0" toLane="0"/>
    <connection from="-239075744#5" to="639340283" fromLane="1" toLane="1"/>
    <connection from="-239075744#5" to="-370316233" fromLane="1" toLane="0"/>
    <connection from="-239075744#5" to="-370316233" fromLane="1" toLane="1"/>
    <connection from="-239075744#5" to="239075744#0" fromLane="1" toLane="1"/>

    <connection from="-239075747#4" to="427558757#0" fromLane="0" toLane="0"/>
    <connection from="-239075747#4" to="427558757#0" fromLane="1" toLane="1"/>
    <connection from="-239075747#4" to="-561004978" fromLane="1" toLane="0"/>
    <connection from="-239075747#4" to="-561004978" fromLane="1" toLane="1"/>
    <connection from="-239075747#4" to="239075747#0" fromLane="1" toLane="1"/>

    <connection from="-239075751#1" to="-370210023#2" fromLane="0" toLane="0"/>
    <connection from="-239075751#1" to="-370210019#2" fromLane="0" toLane="0"/>
    <connection from="-239075751#1" to="-370210019#2" fromLane="0" toLane="1"/>
    <connection from="-239075751#1" to="-370210019#2" fromLane="0" toLane="2"/>
    <connection from="-239075751#1" to="239075751#0" fromLane="0" toLane="1"/>

    <connection from="-239077121#3" to="239077129#0" fromLane="0" toLane="0"/>
    <connection from="-239077121#3" to="-278058874#2" fromLane="0" toLane="0"/>
    <connection from="-239077121#3" to="-278058874#2" fromLane="1" toLane="1"/>
    <connection from="-239077121#3" to="239077130#0" fromLane="1" toLane="0"/>
    <connection from="-239077121#3" to="239077121#0" fromLane="1" toLane="1"/>

    <connection from="-239077122#0" to="-639334649#1" fromLane="0" toLane="0"/>
    <connection from="-239077122#0" to="239077122#0" fromLane="0" toLane="0"/>

    <connection from="-239077122#1" to="-239077122#0" fromLane="0" toLane="0"/>
    <connection from="-239077122#1" to="239077122#1" fromLane="0" toLane="0"/>

    <connection from="-239205801" to="-336951724#1" fromLane="0" toLane="0"/>
    <connection from="-239205801" to="642984983" fromLane="0" toLane="0"/>
    <connection from="-239205801" to="239205801" fromLane="0" toLane="0"/>

    <connection from="-239205802" to="34754119" fromLane="0" toLane="0"/>
    <connection from="-239205802" to="-239205801" fromLane="0" toLane="0"/>
    <connection from="-239205802" to="239205802" fromLane="0" toLane="0"/>

    <connection from="-239205807#0" to="-892407205" fromLane="0" toLane="0"/>
    <connection from="-239205807#0" to="-196782992" fromLane="0" toLane="0"/>
    <connection from="-239205807#0" to="28372165#0" fromLane="0" toLane="0"/>
    <connection from="-239205807#0" to="239205807#0" fromLane="0" toLane="0"/>

    <connection from="-239209575#5" to="-590076249" fromLane="0" toLane="0"/>