<?xml version="1.0" encoding="UTF-8"?>

<!-- generated on 2025-09-18 18:06:51 by Eclipse SUMO netconvert Version 1.24.0
<netconvertConfiguration xmlns:xsi="http://www.w3.org/2001/XMLSchema-instance" xsi:noNamespaceSchemaLocation="http://sumo.dlr.de/xsd/netconvertConfiguration.xsd">

    <input>
        <sumo-net-file value="network.net.xml"/>
    </input>

    <output>
        <plain-output-prefix value="network"/>
    </output>

    <processing>
        <geometry.min-radius.fix.railways value="false"/>
        <geometry.avoid-overlap value="false"/>
        <geometry.max-grade.fix value="false"/>
        <offset.disable-normalization value="true"/>
        <lefthand value="0"/>
    </processing>

    <junctions>
        <no-turnarounds value="true"/>
        <junctions.corner-detail value="5"/>
        <junctions.limit-turn-speed value="5.50"/>
        <rectangular-lane-cut value="0"/>
    </junctions>

    <pedestrian>
        <walkingareas value="0"/>
    </pedestrian>

</netconvertConfiguration>
-->

<connections version="1.20" xmlns:xsi="http://www.w3.org/2001/XMLSchema-instance" xsi:noNamespaceSchemaLocation="http://sumo.dlr.de/xsd/connections_file.xsd">
    <connection from="e1" to="e4" fromLane="0" toLane="0"/>
    <connection from="e1" to="e2" fromLane="0" toLane="0"/>

    <connection from="e2" to="e3" fromLane="0" toLane="0"/>

    <connection from="e4" to="e7" fromLane="0" toLane="0"/>
    <connection from="e4" to="e5" fromLane="0" toLane="0"/>

    <connection from="e5" to="e6" fromLane="0" toLane="0"/>
    <connection from="e5" to="e5-vuelta" fromLane="0" toLane="0"/>

    <connection from="e5-vuelta" to="e7" fromLane="0" toLane="0"/>
    <connection from="e5-vuelta" to="e5" fromLane="0" toLane="0"/>

    <connection from="e6" to="e3" fromLane="0" toLane="0"/>

    <connection from="e7" to="e8" fromLane="0" toLane="0"/>

    <connection from="e8" to="e9" fromLane="0" toLane="0"/>

    <connection from="e9" to="e6" fromLane="0" toLane="0"/>
    <connection from="e9" to="e5-vuelta" fromLane="0" toLane="0"/>

</connections>
