<nodes>
    <node id="start" x="0.0" y="0.0"/>
    <node id="end" x="0.0" y="200.0"/>
    <node id="road-to-cs" x="0.0" y="60.0"/>
    <node id="road-from-cs" x="0.0" y="130.0"/>
    <node id="cs-start" x="50.0" y="35.0" type="traffic_light"/>
    <node id="cs-end" x="50.0" y="85.0"/>
    <node id="start2" x="100.0" y="0.0"/>
    <node id="end2" x="300.0" y="200.0"/>
    <node id="start3" x="300.0" y="0.0"/>
    <node id="cs_e7" x="200.0" y="100.0" />
    <node id="cs_start_e7" x="215.90990257669733" y="38.1281566461771" />
    <node id="cs_end_e7" x="261.8718433538229" y="84.09009742330268" />
    <node id="cs_e8" x="300.0" y="100.0" />
    <node id="cs_start_e8" x="355.0" y="67.5" />
    <node id="cs_end_e8" x="355.0" y="132.5" />
</nodes>
