<configuration>
    <input>
        <net-file value="network.net.xml"/>
        <route-files value="routes.rou.xml"/>
        <additional-files value="infraestructura.add.xml"/>

    </input>

    <time>
        <begin value="0"/>
        <end value="500"/>

    </time>
  
     <report>
        <verbose value="true"/>
        <no-step-log value="true"/>
    </report>

</configuration>
