<?xml version="1.0" encoding="UTF-8"?>

<!-- generated on 2025-07-15 14:05:23 by Eclipse SUMO netconvert Version 1.23.1
<netconvertConfiguration xmlns:xsi="http://www.w3.org/2001/XMLSchema-instance" xsi:noNamespaceSchemaLocation="http://sumo.dlr.de/xsd/netconvertConfiguration.xsd">

    <input>
        <sumo-net-file value="osm.net.xml.gz"/>
    </input>

    <output>
        <plain-output-prefix value="network"/>
        <output.street-names value="true"/>
    </output>

    <processing>
        <geometry.min-radius.fix.railways value="false"/>
        <geometry.avoid-overlap value="false"/>
        <geometry.max-grade.fix value="false"/>
        <offset.disable-normalization value="true"/>
        <lefthand value="0"/>
    </processing>

    <junctions>
        <no-turnarounds value="true"/>
        <junctions.corner-detail value="5"/>
        <junctions.limit-turn-speed value="5.50"/>
        <rectangular-lane-cut value="0"/>
    </junctions>

    <pedestrian>
        <walkingareas value="0"/>
    </pedestrian>

</netconvertConfiguration>
-->

<nodes version="1.20" xmlns:xsi="http://www.w3.org/2001/XMLSchema-instance" xsi:noNamespaceSchemaLocation="http://sumo.dlr.de/xsd/nodes_file.xsd">
    <location netOffset="-762363.65,-4134809.50" convBoundary="0.00,0.00,13653.09,12841.28" origBoundary="-6.035686,37.319337,-5.881397,37.435880" projParameter="+proj=utm +zone=29 +ellps=WGS84 +datum=WGS84 +units=m +no_defs"/>

    <node id="10002007045" x="2265.55" y="4711.60" type="priority"/>
    <node id="10002034315" x="7948.61" y="8836.21" type="priority"/>
    <node id="1013592049" x="4841.87" y="1846.61" type="priority"/>
    <node id="10148518334" x="6936.37" y="4408.56" type="priority"/>
    <node id="10148518339" x="6998.51" y="4425.79" type="priority"/>
    <node id="10158739309" x="8707.13" y="3652.63" type="priority"/>
    <node id="10261198096" x="5518.98" y="8227.48" type="priority"/>
    <node id="10292239291" x="3673.54" y="10281.67" type="priority"/>
    <node id="10300590732" x="447.64" y="7332.80" type="priority"/>
    <node id="10300590751" x="5960.87" y="8662.23" type="priority"/>
    <node id="10300590752" x="5958.46" y="8643.03" type="priority"/>
    <node id="1060131758" x="7663.51" y="4011.62" type="priority"/>
    <node id="1060131896" x="7596.68" y="3960.15" type="priority"/>
    <node id="1060131941" x="7699.69" y="4001.09" type="priority"/>
    <node id="1060132067" x="7528.11" y="4120.38" type="priority"/>
    <node id="1060132085" x="7723.78" y="4062.96" type="priority"/>
    <node id="1060132103" x="7896.84" y="2782.42" type="priority"/>
    <node id="1060132134" x="7595.98" y="3968.76" type="priority"/>
    <node id="1060132136" x="7782.42" y="4047.51" type="priority"/>
    <node id="10607189027" x="3255.11" y="9899.27" type="priority"/>
    <node id="10670300064" x="5695.73" y="2517.11" type="priority"/>
    <node id="10681012429" x="3128.52" y="2277.16" type="priority"/>
    <node id="10681012451" x="3125.55" y="1900.74" type="priority"/>
    <node id="10769162482" x="6818.33" y="11452.84" type="priority"/>
    <node id="10769162489" x="6849.14" y="11470.54" type="priority"/>
    <node id="10769162492" x="6819.71" y="11455.48" type="priority"/>
    <node id="10769219156" x="7723.68" y="11410.46" type="priority"/>
    <node id="10769219163" x="6804.31" y="11457.54" type="priority"/>
    <node id="10769219165" x="6802.33" y="11472.96" type="priority"/>
    <node id="10773334306" x="6712.53" y="11478.05" type="priority"/>
    <node id="10773334307" x="6631.75" y="11495.46" type="priority"/>
    <node id="10773334308" x="6945.74" y="11473.98" type="priority"/>
    <node id="10773334309" x="7050.99" y="11468.84" type="priority"/>
    <node id="10773334310" x="7808.55" y="11241.06" type="priority"/>
    <node id="10773334311" x="7846.54" y="11152.19" type="priority"/>
    <node id="10773334312" x="7468.74" y="11494.01" type="priority"/>
    <node id="10855840195" x="9070.25" y="6432.50" type="priority"/>
    <node id="10855840197" x="9023.84" y="6473.38" type="priority"/>
    <node id="1092100499-AddedOnRampNode" x="5693.01" y="2093.94" type="priority"/>
    <node id="10960331530" x="4720.32" y="7434.01" type="priority"/>
    <node id="1109164684#0-AddedOffRampNode" x="9773.35" y="2336.24" type="priority"/>
    <node id="1110434753-AddedOnRampNode" x="8122.16" y="3767.61" type="priority"/>
    <node id="11169497000" x="646.81" y="10124.17" type="priority"/>
    <node id="11169497002" x="536.82" y="10122.45" type="priority"/>
    <node id="11177448295" x="6351.35" y="2604.30" type="priority"/>
    <node id="11212253411" x="11591.93" y="6997.62" type="dead_end"/>
    <node id="1123187744" x="9500.13" y="9250.20" type="traffic_light" tl="joinedS_1123187744_364146781_364146868" tlType="actuated"/>
    <node id="1123226666" x="5050.57" y="9532.65" type="traffic_light" tl="joinedS_1123226666_422989187" tlType="actuated"/>
    <node id="1123585182" x="10852.50" y="7337.10" type="priority"/>
    <node id="1124081376" x="8493.30" y="9349.17" type="priority"/>
    <node id="1124081391" x="8491.31" y="9338.05" type="priority"/>
    <node id="11244218704" x="7245.75" y="4192.20" type="priority"/>
    <node id="11244218705" x="7395.86" y="4364.97" type="priority"/>
    <node id="11244218709" x="7218.13" y="4177.82" type="priority"/>
    <node id="1126860943#1-AddedOnRampNode" x="9174.46" y="2834.19" type="priority"/>
    <node id="1130233922" x="9689.60" y="8811.79" type="priority"/>
    <node id="1130233969" x="9605.97" y="8915.22" type="priority"/>
    <node id="1130233987" x="9642.41" y="8888.33" type="priority"/>
    <node id="1131704728" x="9135.51" y="8976.11" type="priority"/>
    <node id="11341043438" x="5661.07" y="2581.16" type="priority"/>
    <node id="1136716444" x="9211.14" y="8851.69" type="priority"/>
    <node id="11383609628" x="7616.05" y="10029.77" type="priority"/>
    <node id="11383609629" x="7603.92" y="10029.14" type="priority"/>
    <node id="11399971584" x="7059.84" y="4421.06" type="priority"/>
    <node id="11399971585" x="7114.21" y="4394.39" type="priority"/>
    <node id="11399971594" x="9509.47" y="2546.65" type="priority"/>
    <node id="11399971608" x="7412.70" y="4222.25" type="priority"/>
    <node id="11399971612" x="7463.04" y="4183.83" type="priority"/>
    <node id="11399971616" x="7514.69" y="4467.97" type="priority"/>
    <node id="11400048076" x="9302.89" y="2691.82" type="priority"/>
    <node id="11400048078" x="9352.63" y="2713.76" type="priority"/>
    <node id="11400048081" x="9328.09" y="2674.50" type="priority"/>
    <node id="11400048102" x="9691.33" y="2351.93" type="priority"/>
    <node id="11400048103" x="9538.88" y="2476.85" type="priority"/>
    <node id="11400048108" x="9620.49" y="2434.34" type="priority"/>
    <node id="11400048115" x="9625.61" y="2433.08" type="priority"/>
    <node id="11400048118" x="9597.66" y="2431.47" type="priority"/>
    <node id="11400048119" x="9625.76" y="2408.57" type="priority"/>
    <node id="11400048134" x="9630.39" y="2395.91" type="priority"/>
    <node id="1142412387" x="9620.42" y="8272.86" type="priority"/>
    <node id="1142412439" x="10273.55" y="7859.33" type="traffic_light" tl="joinedS_1142412439_cluster_292332251_292332259_292332425" tlType="actuated" controlledInner="187102707#1"/>
    <node id="1142412455" x="9433.47" y="8485.76" type="priority"/>
    <node id="1142412509" x="9260.85" y="8806.46" type="priority"/>
    <node id="1142412585" x="9565.40" y="8278.51" type="priority"/>
    <node id="1142412591" x="9602.71" y="8217.90" type="priority"/>
    <node id="1142412603" x="9237.05" y="8803.84" type="priority"/>
    <node id="1142412609" x="9422.80" y="8515.85" type="priority"/>
    <node id="1142412708" x="9251.45" y="8825.51" type="priority"/>
    <node id="1142412720" x="9277.63" y="8831.92" type="priority"/>
    <node id="1142412796" x="9239.49" y="8822.06" type="priority"/>
    <node id="1142412886" x="9251.61" y="8800.62" type="priority"/>
    <node id="1145282640" x="5222.98" y="2263.69" type="priority"/>
    <node id="1145282646" x="5952.26" y="3789.57" type="priority"/>
    <node id="1146951959" x="9850.25" y="8787.83" type="priority"/>
    <node id="1146951961" x="9874.43" y="8882.62" type="priority"/>
    <node id="11482598492" x="6731.48" y="418.63" type="priority"/>
    <node id="11482701691" x="5610.86" y="6822.17" type="priority"/>
    <node id="11482701698" x="5636.37" y="6842.80" type="priority"/>
    <node id="11482701701" x="5621.82" y="6850.99" type="priority"/>
    <node id="11482701720" x="5131.87" y="6271.05" type="traffic_light" tl="GS_11482701720" tlType="actuated"/>
    <node id="1149335538" x="7961.60" y="8677.60" type="priority"/>
    <node id="1149335599" x="8848.76" y="9369.28" type="traffic_light" tl="joinedS_1149335599_cluster_304500715_304500990" tlType="actuated" controlledInner="1375655934#0"/>
    <node id="1149942713-AddedOnRampNode" x="1987.17" y="6263.49" type="priority"/>
    <node id="11553404607" x="5629.58" y="6819.48" type="priority"/>
    <node id="11575805099" x="8702.39" y="3680.06" type="priority"/>
    <node id="1158446377-AddedOffRampNode" x="6702.61" y="11479.16" type="priority"/>
    <node id="1158446383#1-AddedOnRampNode" x="6949.02" y="11465.50" type="priority"/>
    <node id="1188156665" x="3034.29" y="7398.50" type="traffic_light" tl="1188156665" tlType="actuated"/>
    <node id="11901440597" x="4563.09" y="2436.53" type="priority"/>
    <node id="11901440601" x="5064.57" y="2210.99" type="priority"/>
    <node id="11904067870" x="12074.88" y="648.32" type="dead_end"/>
    <node id="11909927321" x="2718.25" y="4280.73" type="priority"/>
    <node id="11909981030" x="3134.47" y="3333.69" type="priority"/>
    <node id="11909981038" x="2716.91" y="4204.99" type="priority"/>
    <node id="11920407800" x="7401.29" y="10431.84" type="priority"/>
    <node id="11920407814" x="7395.19" y="10420.71" type="priority"/>
    <node id="11920407818" x="7752.67" y="9399.09" type="priority"/>
    <node id="11920407819" x="7745.69" y="9418.88" type="priority"/>
    <node id="11920407826" x="7634.46" y="9917.50" type="priority"/>
    <node id="11920407851" x="7655.22" y="9788.76" type="priority"/>
    <node id="11920407853" x="7649.34" y="9830.04" type="priority"/>
    <node id="1197156998" x="564.58" y="4497.31" type="priority"/>
    <node id="1197157002" x="682.65" y="4236.67" type="dead_end"/>
    <node id="11978207216" x="1744.33" y="5570.34" type="priority"/>
    <node id="1205200675-AddedOffRampNode" x="636.81" y="10124.02" type="priority"/>
    <node id="1205200679-AddedOffRampNode" x="420.06" y="10118.85" type="priority"/>
    <node id="12069735444" x="480.87" y="4728.23" type="priority"/>
    <node id="12069735453" x="642.28" y="5328.05" type="priority"/>
    <node id="12069735454" x="457.61" y="5093.01" type="priority"/>
    <node id="12071185627" x="910.02" y="6085.93" type="priority"/>
    <node id="12071185628" x="897.98" y="5966.21" type="priority"/>
    <node id="12071185636" x="899.66" y="5982.88" type="priority"/>
    <node id="12071185637" x="892.36" y="5842.13" type="priority"/>
    <node id="12073349593" x="364.93" y="9347.64" type="priority"/>
    <node id="12077254868" x="304.82" y="10450.05" type="priority"/>
    <node id="12087433067" x="7617.50" y="4589.95" type="priority"/>
    <node id="12087510772" x="7564.61" y="4524.92" type="priority"/>
    <node id="12087510773" x="7730.11" y="4662.97" type="priority"/>
    <node id="1216539593" x="8181.76" y="6127.48" type="priority"/>
    <node id="1216539600" x="8159.20" y="6124.79" type="priority"/>
    <node id="1216539601" x="8164.34" y="6134.78" type="priority"/>
    <node id="121677953#1-AddedOffRampNode" x="975.81" y="6658.27" type="priority"/>
    <node id="121677953#1-AddedOnRampNode" x="932.71" y="6176.09" type="priority"/>
    <node id="12184537568" x="8119.94" y="8897.01" type="priority"/>
    <node id="12184537572" x="8094.60" y="8872.11" type="priority"/>
    <node id="12184537575" x="8107.50" y="8893.50" type="priority"/>
    <node id="12184578518" x="8146.45" y="8873.47" type="priority"/>
    <node id="12184578523" x="8130.82" y="8847.36" type="priority"/>
    <node id="12184578549" x="7969.06" y="8665.80" type="priority"/>
    <node id="12184578563" x="7981.84" y="8731.02" type="traffic_light" tl="GS_12184578563" tlType="actuated"/>
    <node id="12184578571" x="8020.65" y="8727.38" type="priority"/>
    <node id="12189630858" x="8018.48" y="8636.64" type="priority"/>
    <node id="12242022211" x="5851.69" y="8042.51" type="priority"/>
    <node id="12242022216" x="5734.38" y="7934.08" type="priority"/>
    <node id="12246240990" x="6199.85" y="8392.62" type="priority"/>
    <node id="12246240993" x="6126.41" y="8357.47" type="priority"/>
    <node id="1229546999" x="6251.17" y="6692.40" type="priority"/>
    <node id="12299040647" x="8459.37" y="3729.71" type="priority"/>
    <node id="12416504405" x="7349.38" y="6637.60" type="priority"/>
    <node id="12416504439" x="7316.90" y="6618.33" type="priority"/>
    <node id="12416504440" x="7311.89" y="6636.42" type="priority"/>
    <node id="1242433443" x="649.34" y="3684.69" type="priority"/>
    <node id="1242433450" x="667.21" y="3672.06" type="priority"/>
    <node id="1243175671#0-AddedOnRampNode" x="5389.56" y="6115.11" type="priority"/>
    <node id="1251366901" x="7211.29" y="1546.43" type="priority"/>
    <node id="1251366981" x="7865.66" y="2748.26" type="priority"/>
    <node id="1254108413" x="4344.74" y="6575.69" type="priority"/>
    <node id="1256452210" x="311.14" y="5053.08" type="dead_end"/>
    <node id="1256452350" x="581.78" y="4798.01" type="priority"/>
    <node id="1262449003" x="5831.54" y="10601.06" type="priority"/>
    <node id="1262462083" x="6250.41" y="4393.42" type="priority"/>
    <node id="1262462088" x="6264.95" y="4378.57" type="priority"/>
    <node id="12633617082" x="8003.54" y="8743.30" type="priority"/>
    <node id="12697308481" x="6496.73" y="8112.72" type="priority"/>
    <node id="12697308491" x="6444.46" y="8180.58" type="priority"/>
    <node id="12697308553" x="6454.83" y="8159.07" type="priority"/>
    <node id="12705640696" x="6838.94" y="7718.90" type="priority"/>
    <node id="12708195444" x="6863.30" y="7678.85" type="priority"/>
    <node id="12723214467" x="4750.13" y="11846.52" type="dead_end"/>
    <node id="12737236396" x="8682.70" y="9306.01" type="priority"/>
    <node id="12737277501" x="8702.64" y="9297.27" type="priority"/>
    <node id="12737277502" x="8748.83" y="9331.21" type="priority"/>
    <node id="1279784116" x="5763.75" y="8012.42" type="traffic_light" tl="joinedS_1279784116_765623222" tlType="actuated"/>
    <node id="12800805713" x="8251.54" y="9046.14" type="priority"/>
    <node id="12800805714" x="8206.26" y="8991.12" type="priority"/>
    <node id="12800805722" x="8316.88" y="9089.61" type="priority"/>
    <node id="1280771311" x="5711.59" y="10596.33" type="priority"/>
    <node id="12834626542" x="10283.19" y="7577.34" type="priority"/>
    <node id="12834626543" x="10285.51" y="7655.95" type="priority"/>
    <node id="12834626548" x="10306.99" y="7671.53" type="priority"/>
    <node id="12834626549" x="10304.94" y="7607.33" type="priority"/>
    <node id="12843757084" x="10497.08" y="1563.38" type="dead_end"/>
    <node id="12875805361" x="9049.63" y="9445.92" type="priority"/>
    <node id="12875805364" x="9030.21" y="9421.22" type="priority"/>
    <node id="12875805366" x="9103.06" y="9448.79" type="priority"/>
    <node id="12875805384" x="9334.20" y="9461.99" type="priority"/>
    <node id="12875805386" x="9257.99" y="9493.18" type="priority"/>
    <node id="12881470861" x="8049.41" y="8795.67" type="priority"/>
    <node id="12881470862" x="8183.73" y="8937.32" type="priority"/>
    <node id="12881470863" x="8165.08" y="8913.75" type="priority"/>
    <node id="12881470873" x="8144.49" y="8914.18" type="priority"/>
    <node id="12881470882" x="8118.03" y="8845.38" type="priority"/>
    <node id="1288315317" x="3601.72" y="5100.22" type="traffic_light" tl="joinedS_1288315317_cluster_314337642_3306254307_952258492_952258504" tlType="actuated" controlledInner="23126546#3"/>
    <node id="1289204299" x="4260.24" y="11720.56" type="priority"/>
    <node id="1289204315" x="4260.26" y="11732.91" type="priority"/>
    <node id="1291083702" x="4658.27" y="6962.33" type="priority"/>
    <node id="1291083709" x="4684.48" y="7081.79" type="priority"/>
    <node id="1291728482" x="4658.91" y="7015.31" type="priority"/>
    <node id="12918794562" x="4209.36" y="11839.03" type="priority"/>
    <node id="12954663982" x="8164.29" y="8912.77" type="priority"/>
    <node id="12964188244" x="8785.23" y="6686.47" type="priority"/>
    <node id="12964188258" x="8813.41" y="6677.24" type="priority"/>
    <node id="12966153283" x="9689.89" y="9009.45" type="priority"/>
    <node id="12966153284" x="9695.16" y="9040.75" type="priority"/>
    <node id="12966153285" x="9655.99" y="9103.76" type="priority"/>
    <node id="12966153306" x="9648.85" y="9075.18" type="priority"/>
    <node id="12969189753" x="1189.17" y="5424.20" type="priority"/>
    <node id="12990283645" x="10069.72" y="8394.39" type="priority"/>
    <node id="12990283648" x="10033.11" y="8450.72" type="traffic_light" tl="joinedS_12990283648_701164808_cluster_1149335600_364147180_364147462_7149976056" tlType="actuated" controlledInner="1413555722#0 40855667 55815120#8"/>
    <node id="12992165238" x="10163.13" y="8282.68" type="priority"/>
    <node id="12992165239" x="10124.74" y="8344.80" type="priority"/>
    <node id="1299996995" x="4744.45" y="6448.89" type="priority"/>
    <node id="1303261465#0-AddedOffRampNode" x="617.85" y="4415.36" type="priority"/>
    <node id="1304123278-AddedOffRampNode" x="429.80" y="11527.26" type="priority"/>
    <node id="1305081893-AddedOffRampNode" x="8097.65" y="4961.77" type="priority"/>
    <node id="130524388-AddedOffRampNode" x="4235.37" y="3986.24" type="priority"/>
    <node id="131595856#1-AddedOnRampNode" x="8442.84" y="7160.72" type="priority"/>
    <node id="1315994909" x="4510.36" y="2074.38" type="priority"/>
    <node id="1315994912" x="4490.51" y="2070.51" type="priority"/>
    <node id="1315994923" x="4474.97" y="2094.45" type="priority"/>
    <node id="1315994927" x="4480.35" y="2106.01" type="priority"/>
    <node id="1315994930" x="4518.17" y="2095.94" type="priority"/>
    <node id="1315996726" x="4300.49" y="1944.91" type="priority"/>
    <node id="1315996728" x="4253.63" y="1953.69" type="priority"/>
    <node id="1315996737" x="4305.33" y="1951.25" type="priority"/>
    <node id="1315999024" x="4289.56" y="1400.67" type="priority"/>
    <node id="1315999028" x="4316.38" y="1412.72" type="priority"/>
    <node id="1316005493" x="4317.36" y="2266.16" type="priority"/>
    <node id="1316005494" x="4328.71" y="2302.95" type="priority"/>
    <node id="1316005498" x="4306.92" y="2281.48" type="priority"/>
    <node id="1324701279" x="4188.17" y="6383.47" type="priority"/>
    <node id="1324701281" x="4233.83" y="6378.67" type="priority"/>
    <node id="1324701282" x="4237.18" y="6396.30" type="priority"/>
    <node id="1324701283" x="4198.07" y="6412.97" type="priority"/>
    <node id="1324701286" x="4202.41" y="6368.51" type="traffic_light" tl="joinedS_1324701286_1324701288_205479306" tlType="actuated" controlledInner="117621852#0"/>
    <node id="1324701287" x="4237.55" y="6392.81" type="priority"/>
    <node id="1324701288" x="4187.00" y="6395.69" type="traffic_light" tl="joinedS_1324701286_1324701288_205479306" tlType="actuated" controlledInner="117621852#0"/>
    <node id="1325751621" x="4766.44" y="6521.84" type="priority"/>
    <node id="1326316698-AddedOnRampNode" x="8323.45" y="7792.62" type="priority"/>
    <node id="1332199424" x="6118.71" y="3972.20" type="priority"/>
    <node id="1332199425" x="6141.57" y="3971.92" type="priority"/>
    <node id="1348991718" x="3677.48" y="9980.49" type="priority"/>
    <node id="1349642421" x="5972.02" y="8637.35" type="priority"/>
    <node id="1361026966" x="5732.18" y="2445.34" type="priority"/>
    <node id="1361035508" x="6831.15" y="7284.27" type="priority"/>
    <node id="1361303273" x="4750.95" y="1544.32" type="priority"/>
    <node id="1361355257" x="868.41" y="6744.43" type="priority"/>
    <node id="1361508406" x="8834.13" y="6663.24" type="priority"/>
    <node id="1361551535" x="8868.80" y="6611.34" type="priority"/>
    <node id="1361563797" x="8916.23" y="7386.78" type="priority"/>
    <node id="1361563828" x="8902.23" y="7390.80" type="priority"/>
    <node id="1361563857" x="8923.00" y="7391.24" type="priority"/>
    <node id="1362334312" x="2570.11" y="10064.14" type="priority"/>
    <node id="1366446062" x="10418.64" y="7144.58" type="priority"/>
    <node id="1366446148" x="10251.13" y="7467.84" type="priority"/>
    <node id="1401183198" x="3686.47" y="9996.83" type="priority"/>
    <node id="1401183209" x="3652.71" y="10015.30" type="priority"/>
    <node id="1406869345" x="665.91" y="3662.34" type="priority"/>
    <node id="1406869348" x="813.04" y="3663.94" type="priority"/>
    <node id="1406869373" x="834.56" y="3662.02" type="priority"/>
    <node id="1406875873" x="985.39" y="3707.15" type="priority"/>
    <node id="1406875947" x="985.03" y="3663.70" type="priority"/>
    <node id="1407386173" x="664.31" y="3699.67" type="priority"/>
    <node id="1409949861" x="3121.74" y="7276.27" type="priority"/>
    <node id="1409949913" x="2970.83" y="7598.26" type="traffic_light" tl="joinedS_1409949913_205367012_788758319" tlType="actuated" controlledInner="338944243#0 67332829#0"/>
    <node id="1409949966" x="3181.45" y="7194.30" type="priority"/>
    <node id="1410225206" x="11103.06" y="9389.96" type="priority"/>
    <node id="1410225221" x="10411.09" y="8759.71" type="traffic_light" tl="1410225221" tlType="actuated"/>
    <node id="1411858244" x="4993.11" y="11355.73" type="priority"/>
    <node id="1412998649" x="7114.19" y="11042.25" type="priority"/>
    <node id="141388233#0-AddedOffRampNode" x="10691.88" y="11109.49" type="priority"/>
    <node id="1414444741" x="9140.64" y="1858.72" type="priority"/>
    <node id="142578496#1-AddedOffRampNode" x="11087.13" y="7186.09" type="priority"/>
    <node id="142578496#1-AddedOnRampNode" x="10619.10" y="7318.33" type="priority"/>
    <node id="142579641-AddedOnRampNode" x="9913.15" y="7351.38" type="priority"/>
    <node id="1431461058" x="6342.15" y="9050.35" type="traffic_light" tl="joinedS_1431461058_307843846_cluster_731074968_771670231" tlType="actuated"/>
    <node id="1433121626" x="4041.63" y="6022.24" type="traffic_light" tl="joinedS_1433121626_2782897923" tlType="actuated"/>
    <node id="1436505025" x="4314.48" y="5093.50" type="priority"/>
    <node id="1437301909" x="4705.98" y="5189.20" type="priority"/>
    <node id="1437456924" x="3750.22" y="5898.90" type="priority"/>
    <node id="1454751994" x="8649.47" y="6779.62" type="priority"/>
    <node id="145943310-AddedOnRampNode" x="4245.34" y="3987.56" type="priority"/>
    <node id="1486028918" x="6875.59" y="7608.30" type="priority"/>
    <node id="1486028920" x="6830.59" y="7179.67" type="priority"/>
    <node id="1486028921" x="6838.71" y="7283.26" type="priority"/>
    <node id="1486028925" x="6823.80" y="7182.00" type="priority"/>
    <node id="1489149315" x="2744.75" y="390.61" type="dead_end"/>
    <node id="1489149334" x="2763.27" y="373.87" type="dead_end"/>
    <node id="1490231787" x="5276.87" y="5408.32" type="priority"/>
    <node id="1490343192" x="9332.41" y="2728.64" type="priority"/>
    <node id="1492896639" x="8856.25" y="3052.31" type="dead_end"/>
    <node id="1496260587" x="10823.89" y="6121.27" type="priority"/>
    <node id="1496260588" x="10867.64" y="6108.88" type="priority"/>
    <node id="1496260594" x="10862.35" y="6129.20" type="priority"/>
    <node id="1496260596" x="10829.99" y="6130.63" type="priority"/>
    <node id="1496260597" x="10858.10" y="6132.86" type="priority"/>
    <node id="1500351920" x="3133.86" y="3279.53" type="priority"/>
    <node id="1505621463" x="6884.51" y="7729.87" type="traffic_light" tl="joinedS_1505621463_1505622592_1505624251_4099250407_#1more" tlType="actuated" controlledInner="27729657#0 407903968"/>
    <node id="1505622591" x="6902.18" y="7722.99" type="priority"/>
    <node id="1505622592" x="6915.32" y="7742.55" type="traffic_light" tl="joinedS_1505621463_1505622592_1505624251_4099250407_#1more" tlType="actuated" controlledInner="27729657#0 407903968"/>
    <node id="1505624247" x="6846.38" y="7729.00" type="priority"/>
    <node id="1505624248" x="6837.67" y="7700.07" type="priority"/>
    <node id="1505624249" x="6864.05" y="7736.42" type="priority"/>
    <node id="1505624251" x="6886.78" y="7687.02" type="traffic_light" tl="joinedS_1505621463_1505622592_1505624251_4099250407_#1more" tlType="actuated" controlledInner="27729657#0 407903968"/>
    <node id="1505624253" x="6871.81" y="7679.26" type="priority"/>
    <node id="1505624254" x="6894.77" y="7712.16" type="priority"/>
    <node id="1505626336" x="6870.13" y="7198.49" type="priority"/>
    <node id="1516283474" x="4686.35" y="1953.92" type="priority"/>
    <node id="1516296309" x="4308.33" y="1971.67" type="priority"/>
    <node id="1521062033" x="1012.21" y="4869.52" type="priority"/>
    <node id="1521062045" x="1016.90" y="4865.75" type="priority"/>
    <node id="1521062055" x="1017.18" y="4888.18" type="priority"/>
    <node id="1521062066" x="1033.54" y="4872.38" type="priority"/>
    <node id="1535799688" x="913.44" y="6427.13" type="priority"/>
    <node id="1535799704" x="910.25" y="6508.35" type="dead_end"/>
    <node id="1535799741" x="911.18" y="6554.06" type="dead_end"/>
    <node id="1535803795" x="601.16" y="7144.09" type="priority"/>
    <node id="1535803815" x="690.49" y="7032.00" type="priority"/>
    <node id="1535803818" x="702.44" y="7016.64" type="priority"/>
    <node id="1535803857" x="711.75" y="7025.98" type="priority"/>
    <node id="1547344537" x="5778.01" y="8008.29" type="priority"/>
    <node id="1547344541" x="5811.30" y="7991.76" type="priority"/>
    <node id="1547572702" x="4781.30" y="6438.97" type="priority"/>
    <node id="1556804011" x="10837.94" y="7765.30" type="traffic_light" tl="1556804011" tlType="actuated"/>
    <node id="1556804136" x="10843.98" y="7874.06" type="priority"/>
    <node id="1557155994" x="8752.48" y="3535.59" type="priority"/>
    <node id="1557156066" x="8745.10" y="3597.02" type="priority"/>
    <node id="1557156110" x="8679.62" y="3693.13" type="priority"/>
    <node id="1557156177" x="8744.67" y="3552.92" type="priority"/>
    <node id="1557244277" x="8455.06" y="3730.04" type="priority"/>
    <node id="1557244300" x="8438.41" y="3737.27" type="priority"/>
    <node id="1560326609" x="10043.48" y="7454.98" type="priority"/>
    <node id="157153624-AddedOnRampNode" x="1331.62" y="7384.40" type="priority"/>
    <node id="1606312057" x="6392.44" y="5840.82" type="traffic_light" tl="joinedS_1606312057_304502135_332566824_582633156" tlType="actuated"/>
    <node id="1610732785" x="4344.34" y="2275.35" type="priority"/>
    <node id="1631066112" x="9043.46" y="9123.85" type="priority"/>
    <node id="1631066127" x="8932.92" y="9347.79" type="priority"/>
    <node id="1671468871" x="4116.20" y="9440.80" type="priority"/>
    <node id="1695302971" x="465.76" y="4740.77" type="priority"/>
    <node id="1697449988" x="9790.26" y="9023.27" type="priority"/>
    <node id="1697449989" x="9696.07" y="9039.03" type="priority"/>
    <node id="1697713433" x="9352.72" y="2692.14" type="priority"/>
    <node id="1697713434" x="9342.34" y="2680.29" type="traffic_light" tl="joinedS_1697713434_1697713437" tlType="actuated"/>
    <node id="1697713435" x="9304.80" y="2709.78" type="priority"/>
    <node id="1697713437" x="9313.91" y="2722.85" type="traffic_light" tl="joinedS_1697713434_1697713437" tlType="actuated"/>
    <node id="1697713440" x="9367.33" y="2699.76" type="priority"/>
    <node id="1710633189" x="13653.09" y="5903.73" type="dead_end"/>
    <node id="1711991970" x="8354.62" y="3541.76" type="priority"/>
    <node id="172020430#0-AddedOffRampNode" x="10611.55" y="1704.66" type="priority"/>
    <node id="1722410539" x="1002.71" y="3183.76" type="dead_end"/>
    <node id="1722410552" x="1008.68" y="3227.88" type="priority"/>
    <node id="1726240581" x="448.73" y="7333.61" type="priority"/>
    <node id="1726240585" x="525.27" y="7338.38" type="priority"/>
    <node id="1726244927" x="448.25" y="7299.79" type="priority"/>
    <node id="1786250441" x="11779.94" y="6888.30" type="dead_end"/>
    <node id="1819513138" x="830.94" y="5751.54" type="priority"/>
    <node id="1829720599" x="12437.16" y="0.00" type="dead_end"/>
    <node id="1830618019" x="3103.98" y="3896.45" type="priority"/>
    <node id="1830681355" x="8744.50" y="2545.80" type="priority"/>
    <node id="1830681374" x="8722.07" y="2591.26" type="priority"/>
    <node id="1830681377" x="8706.52" y="2577.65" type="priority"/>
    <node id="1830681382" x="8704.54" y="2601.70" type="priority"/>
    <node id="1830681395" x="8778.23" y="2546.10" type="priority"/>
    <node id="1830693733" x="9252.11" y="2618.20" type="priority"/>
    <node id="1830693734" x="9285.81" y="2621.60" type="priority"/>
    <node id="1830693737" x="9260.48" y="2642.20" type="priority"/>
    <node id="1925446400" x="5142.18" y="4869.82" type="priority"/>
    <node id="193493146#1-AddedOnRampNode" x="10586.33" y="11021.92" type="priority"/>
    <node id="193493147#1-AddedOffRampNode" x="8263.79" y="9897.07" type="priority"/>
    <node id="193493147#1-AddedOnRampNode" x="8583.10" y="10048.09" type="priority"/>
    <node id="1935807073" x="4700.52" y="6470.68" type="priority"/>
    <node id="1935807076" x="4743.73" y="6477.04" type="priority"/>