<?xml version="1.0" encoding="UTF-8"?>

<!-- generated on 2025-07-15 14:05:23 by Eclipse SUMO netconvert Version 1.23.1
<netconvertConfiguration xmlns:xsi="http://www.w3.org/2001/XMLSchema-instance" xsi:noNamespaceSchemaLocation="http://sumo.dlr.de/xsd/netconvertConfiguration.xsd">

    <input>
        <sumo-net-file value="osm.net.xml.gz"/>
    </input>

    <output>
        <plain-output-prefix value="network"/>
        <output.street-names value="true"/>
    </output>

    <processing>
        <geometry.min-radius.fix.railways value="false"/>
        <geometry.avoid-overlap value="false"/>
        <geometry.max-grade.fix value="false"/>
        <offset.disable-normalization value="true"/>
        <lefthand value="0"/>
    </processing>

    <junctions>
        <no-turnarounds value="true"/>
        <junctions.corner-detail value="5"/>
        <junctions.limit-turn-speed value="5.50"/>
        <rectangular-lane-cut value="0"/>
    </junctions>

    <pedestrian>
        <walkingareas value="0"/>
    </pedestrian>

</netconvertConfiguration>
-->

<tlLogics version="1.20" xmlns:xsi="http://www.w3.org/2001/XMLSchema-instance" xsi:noNamespaceSchemaLocation="http://sumo.dlr.de/xsd/tllogic_file.xsd">
    <tlLogic id="1188156665" type="actuated" programID="0" offset="0">
        <phase duration="42" state="GGgrrrGGg" minDur="5" maxDur="50"/>
        <phase duration="3"  state="GGyrrryyy"/>
        <phase duration="42" state="GGrGGGrrr" minDur="5" maxDur="50"/>
        <phase duration="3"  state="GGryyyrrr"/>
    </tlLogic>
    <tlLogic id="1410225221" type="actuated" programID="0" offset="0">
        <phase duration="40" state="GGGggrrrrGGGggrrrr" minDur="10" maxDur="50"/>
        <phase duration="5"  state="yyyyyrrrryyyyyrrrr"/>
        <phase duration="40" state="rrrrrGGggrrrrrGGgg" minDur="10" maxDur="50"/>
        <phase duration="5"  state="rrrrryyyyrrrrryyyy"/>
    </tlLogic>
    <tlLogic id="1556804011" type="actuated" programID="0" offset="0">
        <phase duration="40" state="GGrr" minDur="10" maxDur="50"/>
        <phase duration="5"  state="yyrr"/>
        <phase duration="40" state="rrGG" minDur="10" maxDur="50"/>
        <phase duration="5"  state="rryy"/>
    </tlLogic>
    <tlLogic id="2010401871" type="actuated" programID="0" offset="0">
        <phase duration="90" state="GGG" minDur="15" maxDur="100"/>
    </tlLogic>
    <tlLogic id="2017065047" type="actuated" programID="0" offset="0">
        <phase duration="39" state="GGgrrGGg" minDur="13" maxDur="50"/>
        <phase duration="6"  state="yyyrryyy"/>
        <phase duration="39" state="rrrGGrrr" minDur="13" maxDur="50"/>
        <phase duration="6"  state="rrryyrrr"/>
    </tlLogic>
    <tlLogic id="2017065056" type="actuated" programID="0" offset="0">
        <phase duration="79" state="GGggGGGg" minDur="13" maxDur="50"/>
        <phase duration="6"  state="yyyyyyyy"/>
        <phase duration="5"  state="rrrrrrrr"/>
    </tlLogic>
    <tlLogic id="205331580" type="actuated" programID="0" offset="0">
        <phase duration="78" state="GGgGGGgg" minDur="5" maxDur="50"/>
        <phase duration="3"  state="yyyGGGgg"/>
        <phase duration="6"  state="rrrGGGGG" minDur="5" maxDur="50"/>
        <phase duration="3"  state="rrrGGGyy"/>
    </tlLogic>
    <tlLogic id="205331584" type="actuated" programID="0" offset="0">
        <phase duration="39" state="GgGrr" minDur="13" maxDur="50"/>
        <phase duration="6"  state="yyGrr"/>
        <phase duration="39" state="rrGGG" minDur="10" maxDur="50"/>
        <phase duration="6"  state="rrGyy"/>
    </tlLogic>
    <tlLogic id="205335874" type="actuated" programID="0" offset="0">
        <phase duration="39" state="rrrGGgGGG" minDur="5" maxDur="50"/>
        <phase duration="6"  state="rrryyyyyy"/>
        <phase duration="39" state="GGGrrrrrr" minDur="13" maxDur="50"/>
        <phase duration="6"  state="yyyrrrrrr"/>
    </tlLogic>
    <tlLogic id="205335875" type="actuated" programID="0" offset="0">
        <phase duration="33" state="GGGrrrrrrGGg" minDur="13" maxDur="50"/>
        <phase duration="6"  state="GGGrrrrrryyy"/>
        <phase duration="6"  state="GGGGGrrrrrrr" minDur="13" maxDur="50"/>
        <phase duration="6"  state="yyyyyrrrrrrr"/>
        <phase duration="33" state="rrrrrGGGgGrr" minDur="10" maxDur="50"/>
        <phase duration="6"  state="rrrrryyyyGrr"/>
    </tlLogic>
    <tlLogic id="205335876" type="actuated" programID="0" offset="0">
        <phase duration="39" state="GGGGggrrrrGGggrrrr" minDur="13" maxDur="50"/>
        <phase duration="6"  state="yyyyyyrrrryyyyrrrr"/>
        <phase duration="39" state="rrrrrrGGggrrrrGGgg" minDur="13" maxDur="50"/>
        <phase duration="6"  state="rrrrrryyyyrrrryyyy"/>
    </tlLogic>
    <tlLogic id="205335880" type="actuated" programID="0" offset="0">
        <phase duration="45" state="GGGr" minDur="13" maxDur="50"/>
        <phase duration="39" state="GGGg" minDur="13" maxDur="50"/>
        <phase duration="6"  state="GGGy"/>
    </tlLogic>
    <tlLogic id="205335894" type="actuated" programID="0" offset="0">
        <phase duration="33" state="rrrrrrGGGrrGGrr" minDur="13" maxDur="50"/>
        <phase duration="6"  state="rrrrrryyyrryyrr"/>
        <phase duration="6"  state="rrrrrrrrrGGrrGG" minDur="13" maxDur="50"/>
        <phase duration="6"  state="rrrrrrrrryyrryy"/>
        <phase duration="33" state="GGGGGgGrrrrrrrr" minDur="13" maxDur="50"/>
        <phase duration="6"  state="yyyyyyGrrrrrrrr"/>
    </tlLogic>
    <tlLogic id="205488011" type="actuated" programID="0" offset="0">
        <phase duration="39" state="GGGggrrrrrGGGg" minDur="5" maxDur="50"/>
        <phase duration="6"  state="yyyyyrrrrrGyyy"/>
        <phase duration="39" state="rrrrrGGGGgGrrr" minDur="13" maxDur="50"/>
        <phase duration="6"  state="rrrrryyyyyGrrr"/>
    </tlLogic>
    <tlLogic id="205488016" type="actuated" programID="0" offset="0">
        <phase duration="39" state="GGGGGgGrrr" minDur="5" maxDur="50"/>
        <phase duration="6"  state="yyyyyyGrrr"/>
        <phase duration="39" state="rrrrrrGGGG" minDur="13" maxDur="50"/>
        <phase duration="6"  state="rrrrrrGyyy"/>
    </tlLogic>
    <tlLogic id="205488025" type="actuated" programID="0" offset="0">
        <phase duration="40" state="GGGGgrrrGg" minDur="5" maxDur="50"/>
        <phase duration="5"  state="yyyyyrrryy"/>
        <phase duration="40" state="rrrrrGGGrr" minDur="10" maxDur="50"/>
        <phase duration="5"  state="rrrrryyyrr"/>
    </tlLogic>
    <tlLogic id="205488028" type="actuated" programID="0" offset="0">
        <phase duration="82" state="GGGgggGGg" minDur="5" maxDur="50"/>
        <phase duration="3"  state="yyyyyyyyy"/>
        <phase duration="5"  state="rrrrrrrrr"/>
    </tlLogic>
    <tlLogic id="2059734839" type="actuated" programID="0" offset="0">
        <phase duration="79" state="GGgGGg" minDur="13" maxDur="50"/>
        <phase duration="6"  state="yyyyyy"/>
        <phase duration="5"  state="rrrrrr"/>
    </tlLogic>
    <tlLogic id="239937329" type="actuated" programID="0" offset="0">
        <phase duration="39" state="GGgrrGGg" minDur="13" maxDur="50"/>
        <phase duration="6"  state="yyyrryyy"/>
        <phase duration="39" state="rrrGGrrr" minDur="10" maxDur="50"/>
        <phase duration="6"  state="rrryyrrr"/>
    </tlLogic>
    <tlLogic id="244000093" type="actuated" programID="0" offset="0">
        <phase duration="39" state="rrrrGGGGGgGGG" minDur="5" maxDur="50"/>
        <phase duration="6"  state="rrrrGGyyyyyyy"/>
        <phase duration="39" state="GGGgGGrrrrrrr" minDur="13" maxDur="50"/>
        <phase duration="6"  state="yyyyGGrrrrrrr"/>
    </tlLogic>
    <tlLogic id="244000761" type="actuated" programID="0" offset="0">
        <phase duration="82" state="GGGG" minDur="5" maxDur="50"/>
        <phase duration="3"  state="yyyy"/>
        <phase duration="5"  state="rrrr"/>
    </tlLogic>
    <tlLogic id="249803037" type="actuated" programID="0" offset="0">
        <phase duration="79" state="GGGGg" minDur="13" maxDur="50"/>
        <phase duration="6"  state="yyyyy"/>
        <phase duration="5"  state="rrrrr"/>
    </tlLogic>
    <tlLogic id="256183433" type="actuated" programID="0" offset="0">
        <phase duration="39" state="GGgrrrGGGgg" minDur="13" maxDur="50"/>
        <phase duration="6"  state="yyyrrryyyyy"/>
        <phase duration="39" state="rrrGGGrrrrr" minDur="13" maxDur="50"/>
        <phase duration="6"  state="rrryyyrrrrr"/>
    </tlLogic>
    <tlLogic id="297892621" type="actuated" programID="0" offset="0">
        <phase duration="39" state="rrrGGGggrrrrrGGGgg" minDur="13" maxDur="50"/>
        <phase duration="6"  state="rrryyyyyrrrrryyyyy"/>
        <phase duration="39" state="GGgrrrrrGGGggrrrrr" minDur="13" maxDur="50"/>
        <phase duration="6"  state="yyyrrrrryyyyyrrrrr"/>
    </tlLogic>
    <tlLogic id="304501813" type="actuated" programID="0" offset="0">
        <phase duration="39" state="GGGGrrGGGGrrr" minDur="13" maxDur="50"/>
        <phase duration="6"  state="yyyyrryyyyrrr"/>
        <phase duration="39" state="rrrrGGrrrrGGg" minDur="13" maxDur="50"/>
        <phase duration="6"  state="rrrryyrrrryyy"/>
    </tlLogic>
    <tlLogic id="306095693" type="actuated" programID="0" offset="0">
        <phase duration="39" state="GGggrrrrGGggrrrr" minDur="13" maxDur="50"/>
        <phase duration="6"  state="yyyyrrrryyyyrrrr"/>
        <phase duration="39" state="rrrrGGggrrrrGGgg" minDur="13" maxDur="50"/>
        <phase duration="6"  state="rrrryyyyrrrryyyy"/>
    </tlLogic>
    <tlLogic id="306100029" type="actuated" programID="0" offset="0">
        <phase duration="39" state="rrrrGGggGGGGg" minDur="13" maxDur="50"/>
        <phase duration="6"  state="rrrryyyyyyyyy"/>
        <phase duration="39" state="GGGGrrrrrrrrr" minDur="13" maxDur="50"/>
        <phase duration="6"  state="yyyyrrrrrrrrr"/>
    </tlLogic>
    <tlLogic id="306100060" type="actuated" programID="0" offset="0">
        <phase duration="39" state="GGggrrrrGGggrrrr" minDur="13" maxDur="50"/>
        <phase duration="6"  state="yyyyrrrryyyyrrrr"/>
        <phase duration="39" state="rrrrGGggrrrrGGgg" minDur="10" maxDur="50"/>
        <phase duration="6"  state="rrrryyyyrrrryyyy"/>
    </tlLogic>
    <tlLogic id="306100786" type="actuated" programID="0" offset="0">
        <phase duration="39" state="rrrrGGGggrrrrGGGgg" minDur="13" maxDur="50"/>
        <phase duration="6"  state="rrrryyyyyrrrryyyyy"/>
        <phase duration="39" state="GGggrrrrrGGggrrrrr" minDur="13" maxDur="50"/>
        <phase duration="6"  state="yyyyrrrrryyyyrrrrr"/>
    </tlLogic>
    <tlLogic id="306100789" type="actuated" programID="0" offset="0">
        <phase duration="39" state="GGGgGGggrrr" minDur="13" maxDur="50"/>
        <phase duration="6"  state="Gyyyyyyyrrr"/>
        <phase duration="39" state="GrrrrrrrGGg" minDur="13" maxDur="50"/>
        <phase duration="6"  state="Grrrrrrryyy"/>
    </tlLogic>
    <tlLogic id="306100790" type="actuated" programID="0" offset="0">
        <phase duration="39" state="GGGgrrrGGGGggrrrrr" minDur="13" maxDur="50"/>
        <phase duration="6"  state="yyyyrrryyyyyyrrrrr"/>
        <phase duration="39" state="rrrrGGgrrrrrrGGGgg" minDur="13" maxDur="50"/>
        <phase duration="6"  state="rrrryyyrrrrrryyyyy"/>
    </tlLogic>
    <tlLogic id="306103411" type="actuated" programID="0" offset="0">
        <phase duration="82" state="GGGGGG" minDur="5" maxDur="50"/>
        <phase duration="3"  state="yyyyyy"/>
        <phase duration="5"  state="rrrrrr"/>
    </tlLogic>
    <tlLogic id="307860549" type="actuated" programID="0" offset="0">
        <phase duration="33" state="rrrrGGGGgrrrrGGGrr" minDur="13" maxDur="50"/>
        <phase duration="6"  state="rrrryyyyyrrrrGGGrr"/>
        <phase duration="6"  state="rrrrrrrrrrrrrGGGGG" minDur="13" maxDur="50"/>
        <phase duration="6"  state="rrrrrrrrrrrrryyyyy"/>
        <phase duration="33" state="GGggrrrrrGGggrrrrr" minDur="10" maxDur="50"/>
        <phase duration="6"  state="yyyyrrrrryyyyrrrrr"/>
    </tlLogic>
    <tlLogic id="308494192" type="actuated" programID="0" offset="0">
        <phase duration="79" state="GGgGGg" minDur="13" maxDur="50"/>
        <phase duration="6"  state="yyyyyy"/>
        <phase duration="5"  state="rrrrrr"/>
    </tlLogic>
    <tlLogic id="311092745" type="actuated" programID="0" offset="0">
        <phase duration="33" state="GGrrrrrGGGGg" minDur="13" maxDur="50"/>
        <phase duration="6"  state="GGrrrrryyyyy"/>
        <phase duration="6"  state="GGGGrrrrrrrr" minDur="13" maxDur="50"/>
        <phase duration="6"  state="yyyyrrrrrrrr"/>
        <phase duration="33" state="rrrrGGgGrrrr" minDur="10" maxDur="50"/>
        <phase duration="6"  state="rrrryyyGrrrr"/>
    </tlLogic>
    <tlLogic id="311422356" type="actuated" programID="0" offset="0">
        <phase duration="79" state="GG" minDur="13" maxDur="50"/>
        <phase duration="6"  state="yy"/>
        <phase duration="5"  state="rr"/>
    </tlLogic>
    <tlLogic id="311766438" type="actuated" programID="0" offset="0">
        <phase duration="39" state="GGrrrrGGrrr" minDur="13" maxDur="50"/>
        <phase duration="6"  state="yyrrrryyrrr"/>
        <phase duration="39" state="rrGGGgrrGGG" minDur="5" maxDur="50"/>
        <phase duration="6"  state="rryyyyrryyy"/>
    </tlLogic>
    <tlLogic id="311766439" type="actuated" programID="0" offset="0">
        <phase duration="39" state="rrrGGGGGGG" minDur="5" maxDur="50"/>
        <phase duration="6"  state="rrrGyyyyyy"/>
        <phase duration="39" state="GGGGrrrrrr" minDur="13" maxDur="50"/>
        <phase duration="6"  state="yyyGrrrrrr"/>
    </tlLogic>
    <tlLogic id="314301823" type="actuated" programID="0" offset="0">
        <phase duration="79" state="GGgGGg" minDur="13" maxDur="50"/>
        <phase duration="6"  state="yyyyyy"/>
        <phase duration="5"  state="rrrrrr"/>
    </tlLogic>
    <tlLogic id="3150419458" type="actuated" programID="0" offset="0">
        <phase duration="39" state="GGr" minDur="13" maxDur="50"/>
        <phase duration="6"  state="yyr"/>
        <phase duration="39" state="rrG" minDur="10" maxDur="50"/>
        <phase duration="6"  state="rry"/>
    </tlLogic>
    <tlLogic id="324815976" type="actuated" programID="0" offset="0">
        <phase duration="40" state="gG" minDur="10" maxDur="50"/>
        <phase duration="5"  state="yG"/>
        <phase duration="45" state="rG" minDur="10" maxDur="50"/>
    </tlLogic>
    <tlLogic id="324817547" type="actuated" programID="0" offset="0">
        <phase duration="39" state="GGGrrrGGgg" minDur="13" maxDur="50"/>
        <phase duration="6"  state="yyyrrryyyy"/>
        <phase duration="39" state="rrrGGGrrrr" minDur="10" maxDur="50"/>
        <phase duration="6"  state="rrryyyrrrr"/>
    </tlLogic>
    <tlLogic id="325686885" type="actuated" programID="0" offset="0">
        <phase duration="39" state="GGGrrr" minDur="13" maxDur="50"/>
        <phase duration="6"  state="yyyrrr"/>
        <phase duration="39" state="rrrGGG" minDur="13" maxDur="50"/>
        <phase duration="6"  state="rrryyy"/>
    </tlLogic>
    <tlLogic id="332586335" type="actuated" programID="0" offset="0">
        <phase duration="24" state="rrrGGGggrrrrrrrrrGGGgg" minDur="13" maxDur="50"/>
        <phase duration="6"  state="rrryyyyyrrrrrrrrryyyyy"/>
        <phase duration="24" state="GGGrrrrrGGGggrrrrrrrrr" minDur="13" maxDur="50"/>
        <phase duration="6"  state="yyyrrrrryyyyyrrrrrrrrr"/>
        <phase duration="24" state="rrrrrrrrrrrrrGGGGrrrrr" minDur="10" maxDur="50"/>
        <phase duration="6"  state="rrrrrrrrrrrrryyyyrrrrr"/>
    </tlLogic>
    <tlLogic id="333193577" type="actuated" programID="0" offset="0">
        <phase duration="82" state="GGGG" minDur="5" maxDur="50"/>
        <phase duration="3"  state="yyyy"/>
        <phase duration="5"  state="rrrr"/>
    </tlLogic>
    <tlLogic id="3535117847" type="actuated" programID="0" offset="0">
        <phase duration="40" state="GGggrrrrGGGg" minDur="10" maxDur="50"/>
        <phase duration="5"  state="yyyyrrrrGyyy"/>
        <phase duration="40" state="rrrrGGGgGrrr" minDur="10" maxDur="50"/>
        <phase duration="5"  state="rrrryyyyGrrr"/>
    </tlLogic>
    <tlLogic id="3708293998" type="actuated" programID="0" offset="0">
        <phase duration="79" state="GGGGG" minDur="13" maxDur="50"/>
        <phase duration="6"  state="yyyyy"/>
        <phase duration="5"  state="rrrrr"/>
    </tlLogic>
    <tlLogic id="3798286952" type="actuated" programID="0" offset="0">
        <phase duration="82" state="GGGGGG" minDur="5" maxDur="50"/>
        <phase duration="3"  state="yyyyyy"/>
        <phase duration="5"  state="rrrrrr"/>
    </tlLogic>
    <tlLogic id="405475447" type="actuated" programID="0" offset="0">
        <phase duration="33" state="rrrrrGGGGrrrrrrrGGGGrr" minDur="13" maxDur="50"/>
        <phase duration="6"  state="rrrrryyyyrrrrrrryyyyrr"/>
        <phase duration="6"  state="rrrrrrrrrGGrrrrrrrrrGG" minDur="13" maxDur="50"/>
        <phase duration="6"  state="rrrrrrrrryyrrrrrrrrryy"/>
        <phase duration="33" state="GGgggrrrrrrGGGggrrrrrr" minDur="10" maxDur="50"/>
        <phase duration="6"  state="yyyyyrrrrrryyyyyrrrrrr"/>
    </tlLogic>
    <tlLogic id="405475503" type="actuated" programID="0" offset="0">
        <phase duration="40" state="GggrrrGGg" minDur="10" maxDur="50"/>
        <phase duration="5"  state="yyyrrrGyy"/>
        <phase duration="40" state="rrrGGgGrr" minDur="10" maxDur="50"/>
        <phase duration="5"  state="rrryyyGrr"/>
    </tlLogic>
    <tlLogic id="405611471" type="actuated" programID="0" offset="0">
        <phase duration="80" state="GGGG" minDur="10" maxDur="50"/>
        <phase duration="5"  state="yyyy"/>
        <phase duration="5"  state="rrrr"/>
    </tlLogic>
    <tlLogic id="418390981" type="actuated" programID="0" offset="0">
        <phase duration="79" state="GGG" minDur="13" maxDur="50"/>
        <phase duration="6"  state="yyy"/>
        <phase duration="5"  state="rrr"/>
    </tlLogic>
    <tlLogic id="427069838" type="actuated" programID="0" offset="0">
        <phase duration="39" state="GGGgrrrrrGGGrrrr" minDur="13" maxDur="50"/>
        <phase duration="6"  state="yyyyrrrrryyyrrrr"/>
        <phase duration="39" state="rrrrGGGggrrrGGGg" minDur="5" maxDur="50"/>
        <phase duration="6"  state="rrrryyyyyrrryyyy"/>
    </tlLogic>
    <tlLogic id="440646979" type="actuated" programID="0" offset="0">
        <phase duration="40" state="GGgrrrGgg" minDur="10" maxDur="50"/>
        <phase duration="5"  state="yyyrrryyy"/>
        <phase duration="40" state="rrrGGGrrr" minDur="10" maxDur="50"/>
        <phase duration="5"  state="rrryyyrrr"/>
    </tlLogic>
    <tlLogic id="440646991" type="actuated" programID="0" offset="0">
        <phase duration="40" state="rrrrrGggGGg" minDur="10" maxDur="50"/>
        <phase duration="5"  state="rrrrryyyyyy"/>
        <phase duration="40" state="GGGGGrrrrrr" minDur="10" maxDur="50"/>
        <phase duration="5"  state="yyyyyrrrrrr"/>
    </tlLogic>
    <tlLogic id="476258692" type="actuated" programID="0" offset="0">
        <phase duration="39" state="GGrr" minDur="13" maxDur="50"/>
        <phase duration="6"  state="yyrr"/>
        <phase duration="39" state="rrGG" minDur="10" maxDur="50"/>
        <phase duration="6"  state="rryy"/>
    </tlLogic>
    <tlLogic id="494288850" type="actuated" programID="0" offset="0">
        <phase duration="29" state="GGrrrrrrGGGrrrrrrr" minDur="10" maxDur="50"/>
        <phase duration="5"  state="yyrrrrrryyyrrrrrrr"/>
        <phase duration="6"  state="rrGGrrrrrrrGGrrrrr" minDur="10" maxDur="50"/>
        <phase duration="5"  state="rryyrrrrrrryyrrrrr"/>
        <phase duration="29" state="rrrrGGggrrrrrGGGrr" minDur="10" maxDur="50"/>
        <phase duration="5"  state="rrrryyggrrrrryyyrr"/>
        <phase duration="6"  state="rrrrrrGGrrrrrrrrGG" minDur="10" maxDur="50"/>
        <phase duration="5"  state="rrrrrryyrrrrrrrryy"/>
    </tlLogic>
    <tlLogic id="5959790292" type="actuated" programID="0" offset="0">
        <phase duration="79" state="GGgGGg" minDur="13" maxDur="50"/>
        <phase duration="6"  state="yyyyyy"/>
        <phase duration="5"  state="rrrrrr"/>
    </tlLogic>
    <tlLogic id="687554834" type="actuated" programID="0" offset="0">
        <phase duration="79" state="GGG" minDur="13" maxDur="50"/>
        <phase duration="6"  state="yyy"/>
        <phase duration="5"  state="rrr"/>
    </tlLogic>
    <tlLogic id="687554838" type="actuated" programID="0" offset="0">
        <phase duration="90" state="GGG" minDur="23" maxDur="100"/>
    </tlLogic>
    <tlLogic id="687554876" type="actuated" programID="0" offset="0">
        <phase duration="82" state="GGGGGGG" minDur="5" maxDur="50"/>
        <phase duration="3"  state="yyyyyyy"/>
        <phase duration="5"  state="rrrrrrr"/>
    </tlLogic>
    <tlLogic id="687554930" type="actuated" programID="0" offset="0">
        <phase duration="39" state="GGr" minDur="5" maxDur="50"/>
        <phase duration="6"  state="yyr"/>
        <phase duration="39" state="rrG" minDur="13" maxDur="50"/>
        <phase duration="6"  state="rry"/>
    </tlLogic>
    <tlLogic id="687554945" type="actuated" programID="0" offset="0">
        <phase duration="79" state="GGG" minDur="13" maxDur="50"/>
        <phase duration="6"  state="yyy"/>
        <phase duration="5"  state="rrr"/>
    </tlLogic>
    <tlLogic id="727740882" type="actuated" programID="0" offset="0">
        <phase duration="80" state="GgGg" minDur="10" maxDur="50"/>
        <phase duration="5"  state="yyyy"/>
        <phase duration="5"  state="rrrr"/>
    </tlLogic>
    <tlLogic id="746303151" type="actuated" programID="0" offset="0">
        <phase duration="42" state="GGg" minDur="5" maxDur="50"/>
        <phase duration="3"  state="GGy"/>
        <phase duration="45" state="GGr" minDur="5" maxDur="50"/>
    </tlLogic>
    <tlLogic id="788758201" type="actuated" programID="0" offset="0">
        <phase duration="79" state="GGGGg" minDur="13" maxDur="50"/>
        <phase duration="6"  state="yyyyy"/>
        <phase duration="5"  state="rrrrr"/>
    </tlLogic>
    <tlLogic id="800325191" type="actuated" programID="0" offset="0">
        <phase duration="39" state="Grrr" minDur="10" maxDur="50"/>
        <phase duration="6"  state="yrrr"/>
        <phase duration="39" state="rGGG" minDur="13" maxDur="50"/>
        <phase duration="6"  state="ryyy"/>
    </tlLogic>
    <tlLogic id="864118733" type="actuated" programID="0" offset="0">
        <phase duration="80" state="GGGG" minDur="10" maxDur="50"/>
        <phase duration="5"  state="yyyy"/>
        <phase duration="5"  state="rrrr"/>
    </tlLogic>
    <tlLogic id="GS_11482701720" type="actuated" programID="0" offset="0">
        <phase duration="39" state="GGrr" minDur="13" maxDur="50"/>
        <phase duration="6"  state="yyrr"/>
        <phase duration="39" state="rrGG" minDur="13" maxDur="50"/>
        <phase duration="6"  state="rryy"/>
    </tlLogic>
    <tlLogic id="GS_12184578563" type="actuated" programID="0" offset="0">
        <phase duration="39" state="GGGrrr" minDur="13" maxDur="50"/>
        <phase duration="6"  state="yyyrrr"/>
        <phase duration="39" state="rrrGGG" minDur="7" maxDur="50"/>
        <phase duration="6"  state="rrryyy"/>
    </tlLogic>
    <tlLogic id="GS_205339061" type="actuated" programID="0" offset="0">
        <phase duration="82" state="GGgGGGGGgg" minDur="5" maxDur="50"/>
        <phase duration="3"  state="yyyyyyyyyy"/>
        <phase duration="5"  state="rrrrrrrrrr"/>
    </tlLogic>
    <tlLogic id="GS_205343329" type="actuated" programID="0" offset="0">
        <phase duration="39" state="GGGGrrrrrr" minDur="13" maxDur="50"/>
        <phase duration="6"  state="yyyyrrrrrr"/>
        <phase duration="39" state="rrrrGGGGGG" minDur="13" maxDur="50"/>
        <phase duration="6"  state="rrrryyyyyy"/>
    </tlLogic>
    <tlLogic id="GS_205379521" type="actuated" programID="0" offset="0">
        <phase duration="39" state="GGGrrrGGGGG" minDur="5" maxDur="50"/>
        <phase duration="6"  state="yyyrrrGGyyy"/>
        <phase duration="39" state="rrrGGGGGrrr" minDur="13" maxDur="50"/>
        <phase duration="6"  state="rrryyyGGrrr"/>
    </tlLogic>
    <tlLogic id="GS_2335920282" type="actuated" programID="0" offset="0">
        <phase duration="42" state="GGGrrrr" minDur="5" maxDur="50"/>
        <phase duration="3"  state="yyyrrrr"/>
        <phase duration="42" state="rrrGGGG" minDur="5" maxDur="50"/>
        <phase duration="3"  state="rrryyyy"/>
    </tlLogic>
    <tlLogic id="GS_2635712069" type="actuated" programID="0" offset="0">
        <phase duration="39" state="GGrrr" minDur="7" maxDur="50"/>
        <phase duration="6"  state="yyrrr"/>
        <phase duration="39" state="rrGGG" minDur="13" maxDur="50"/>
        <phase duration="6"  state="rryyy"/>
    </tlLogic>
    <tlLogic id="GS_304499565" type="actuated" programID="0" offset="0">
        <phase duration="42" state="GGGGrrrrr" minDur="5" maxDur="50"/>
        <phase duration="3"  state="yyyyrrrrr"/>
        <phase duration="42" state="rrrrGGGGG" minDur="5" maxDur="50"/>
        <phase duration="3"  state="rrrryyyyy"/>
    </tlLogic>
    <tlLogic id="GS_306095696" type="actuated" programID="0" offset="0">
        <phase duration="24" state="rrrrrrrGGggGGGg" minDur="13" maxDur="50"/>
        <phase duration="6"  state="rrrrrrryyyyyyyy"/>
        <phase duration="24" state="GGGGrrrrrrrrrrr" minDur="10" maxDur="50"/>
        <phase duration="6"  state="yyyyrrrrrrrrrrr"/>
        <phase duration="24" state="rrrrGGGrrrrrrrr" minDur="10" maxDur="50"/>
        <phase duration="6"  state="rrrryyyrrrrrrrr"/>
    </tlLogic>
    <tlLogic id="GS_306106480" type="actuated" programID="0" offset="0">
        <phase duration="42" state="GGGrrrr" minDur="5" maxDur="50"/>
        <phase duration="3"  state="yyyrrrr"/>
        <phase duration="42" state="rrrGGGG" minDur="5" maxDur="50"/>
        <phase duration="3"  state="rrryyyy"/>
    </tlLogic>
    <tlLogic id="GS_311767075" type="actuated" programID="0" offset="0">
        <phase duration="39" state="Grr" minDur="13" maxDur="50"/>
        <phase duration="6"  state="yrr"/>
        <phase duration="39" state="rGG" minDur="5" maxDur="50"/>
        <phase duration="6"  state="ryy"/>
    </tlLogic>
    <tlLogic id="GS_311771150" type="actuated" programID="0" offset="0">
        <phase duration="27" state="rrrrGGrrrrrrrGGGrr" minDur="13" maxDur="50"/>
        <phase duration="6"  state="rrrryyrrrrrrryyyrr"/>
        <phase duration="6"  state="rrrrrrGGrrrrrrrrGG" minDur="13" maxDur="50"/>
        <phase duration="6"  state="rrrrrryyrrrrrrrryy"/>
        <phase duration="27" state="GGrrrrrrGGGrrrrrrr" minDur="10" maxDur="50"/>
        <phase duration="6"  state="yyrrrrrryyyrrrrrrr"/>
        <phase duration="6"  state="rrGGrrrrrrrGGrrrrr" minDur="10" maxDur="50"/>
        <phase duration="6"  state="rryyrrrrrrryyrrrrr"/>
    </tlLogic>
    <tlLogic id="GS_314304079" type="actuated" programID="0" offset="0">
        <phase duration="82" state="GGgGGg" minDur="5" maxDur="50"/>
        <phase duration="3"  state="yyyyyy"/>
        <phase duration="5"  state="rrrrrr"/>
    </tlLogic>
    <tlLogic id="GS_3150419456" type="actuated" programID="0" offset="0">
        <phase duration="82" state="GGggGGg" minDur="5" maxDur="50"/>
        <phase duration="3"  state="yyyyyyy"/>
        <phase duration="5"  state="rrrrrrr"/>
    </tlLogic>
    <tlLogic id="GS_3174628442" type="actuated" programID="0" offset="0">
        <phase duration="39" state="GGGGrrrrrr" minDur="7" maxDur="50"/>
        <phase duration="6"  state="yyyyrrrrrr"/>
        <phase duration="39" state="rrrrGGGGGG" minDur="13" maxDur="50"/>
        <phase duration="6"  state="rrrryyyyyy"/>
    </tlLogic>
    <tlLogic id="GS_332795211" type="actuated" programID="0" offset="0">
        <phase duration="39" state="GGrr" minDur="5" maxDur="50"/>
        <phase duration="6"  state="yyrr"/>
        <phase duration="39" state="rrGG" minDur="13" maxDur="50"/>
        <phase duration="6"  state="rryy"/>
    </tlLogic>
    <tlLogic id="GS_438084054" type="actuated" programID="0" offset="0">
        <phase duration="39" state="GGGGrr" minDur="13" maxDur="50"/>
        <phase duration="6"  state="yyyyrr"/>
        <phase duration="39" state="rrrrGG" minDur="13" maxDur="50"/>
        <phase duration="6"  state="rrrryy"/>
    </tlLogic>
    <tlLogic id="GS_489703665" type="actuated" programID="0" offset="0">
        <phase duration="42" state="GGrr" minDur="5" maxDur="50"/>
        <phase duration="3"  state="yyrr"/>
        <phase duration="42" state="rrGG" minDur="5" maxDur="50"/>
        <phase duration="3"  state="rryy"/>
    </tlLogic>
    <tlLogic id="GS_687554887" type="actuated" programID="0" offset="0">
        <phase duration="39" state="Grr" minDur="10" maxDur="50"/>
        <phase duration="6"  state="yrr"/>
        <phase duration="39" state="rGG" minDur="13" maxDur="50"/>
        <phase duration="6"  state="ryy"/>
    </tlLogic>
    <tlLogic id="GS_731166141" type="actuated" programID="0" offset="0">
        <phase duration="39" state="GGGGrrrr" minDur="13" maxDur="50"/>
        <phase duration="6"  state="yyyyrrrr"/>
        <phase duration="39" state="rrrrGGGG" minDur="13" maxDur="50"/>
        <phase duration="6"  state="rrrryyyy"/>
    </tlLogic>
    <tlLogic id="GS_84808275" type="actuated" programID="0" offset="0">
        <phase duration="35" state="GGggrrrrrGGGGgg" minDur="5" maxDur="50"/>
        <phase duration="5"  state="yyggrrrrryyyygg"/>
        <phase duration="6"  state="rrGGrrrrrrrrrGG" minDur="5" maxDur="50"/>
        <phase duration="5"  state="rryyrrrrrrrrryy"/>
        <phase duration="34" state="rrrrGGGGgGrrrrr" minDur="10" maxDur="50"/>